* NGSPICE file created from collatz.ext - technology: gf180mcuC

* Black-box entry subcircuit for gf180mcu_fd_sc_mcu7t5v0__fillcap_64 abstract view
.subckt gf180mcu_fd_sc_mcu7t5v0__fillcap_64 VDD VSS
.ends

* Black-box entry subcircuit for gf180mcu_fd_sc_mcu7t5v0__fill_1 abstract view
.subckt gf180mcu_fd_sc_mcu7t5v0__fill_1 VDD VSS
.ends

* Black-box entry subcircuit for gf180mcu_fd_sc_mcu7t5v0__filltie abstract view
.subckt gf180mcu_fd_sc_mcu7t5v0__filltie VDD VSS
.ends

* Black-box entry subcircuit for gf180mcu_fd_sc_mcu7t5v0__antenna abstract view
.subckt gf180mcu_fd_sc_mcu7t5v0__antenna I VDD VSS
.ends

* Black-box entry subcircuit for gf180mcu_fd_sc_mcu7t5v0__fillcap_4 abstract view
.subckt gf180mcu_fd_sc_mcu7t5v0__fillcap_4 VDD VSS
.ends

* Black-box entry subcircuit for gf180mcu_fd_sc_mcu7t5v0__fill_2 abstract view
.subckt gf180mcu_fd_sc_mcu7t5v0__fill_2 VDD VSS
.ends

* Black-box entry subcircuit for gf180mcu_fd_sc_mcu7t5v0__oai211_2 abstract view
.subckt gf180mcu_fd_sc_mcu7t5v0__oai211_2 A1 A2 B C ZN VDD VSS
.ends

* Black-box entry subcircuit for gf180mcu_fd_sc_mcu7t5v0__xor2_1 abstract view
.subckt gf180mcu_fd_sc_mcu7t5v0__xor2_1 A1 A2 Z VDD VSS
.ends

* Black-box entry subcircuit for gf180mcu_fd_sc_mcu7t5v0__nor4_1 abstract view
.subckt gf180mcu_fd_sc_mcu7t5v0__nor4_1 A1 A2 A3 A4 ZN VDD VSS
.ends

* Black-box entry subcircuit for gf180mcu_fd_sc_mcu7t5v0__oai21_1 abstract view
.subckt gf180mcu_fd_sc_mcu7t5v0__oai21_1 A1 A2 B ZN VDD VSS
.ends

* Black-box entry subcircuit for gf180mcu_fd_sc_mcu7t5v0__and3_1 abstract view
.subckt gf180mcu_fd_sc_mcu7t5v0__and3_1 A1 A2 A3 Z VDD VSS
.ends

* Black-box entry subcircuit for gf180mcu_fd_sc_mcu7t5v0__aoi211_2 abstract view
.subckt gf180mcu_fd_sc_mcu7t5v0__aoi211_2 A1 A2 B C ZN VDD VSS
.ends

* Black-box entry subcircuit for gf180mcu_fd_sc_mcu7t5v0__clkbuf_1 abstract view
.subckt gf180mcu_fd_sc_mcu7t5v0__clkbuf_1 I Z VDD VSS
.ends

* Black-box entry subcircuit for gf180mcu_fd_sc_mcu7t5v0__fillcap_16 abstract view
.subckt gf180mcu_fd_sc_mcu7t5v0__fillcap_16 VDD VSS
.ends

* Black-box entry subcircuit for gf180mcu_fd_sc_mcu7t5v0__fillcap_8 abstract view
.subckt gf180mcu_fd_sc_mcu7t5v0__fillcap_8 VDD VSS
.ends

* Black-box entry subcircuit for gf180mcu_fd_sc_mcu7t5v0__nor3_1 abstract view
.subckt gf180mcu_fd_sc_mcu7t5v0__nor3_1 A1 A2 A3 ZN VDD VSS
.ends

* Black-box entry subcircuit for gf180mcu_fd_sc_mcu7t5v0__clkbuf_3 abstract view
.subckt gf180mcu_fd_sc_mcu7t5v0__clkbuf_3 I Z VDD VSS
.ends

* Black-box entry subcircuit for gf180mcu_fd_sc_mcu7t5v0__endcap abstract view
.subckt gf180mcu_fd_sc_mcu7t5v0__endcap VDD VSS
.ends

* Black-box entry subcircuit for gf180mcu_fd_sc_mcu7t5v0__nand2_1 abstract view
.subckt gf180mcu_fd_sc_mcu7t5v0__nand2_1 A1 A2 ZN VDD VSS
.ends

* Black-box entry subcircuit for gf180mcu_fd_sc_mcu7t5v0__aoi22_1 abstract view
.subckt gf180mcu_fd_sc_mcu7t5v0__aoi22_1 A1 A2 B1 B2 ZN VDD VSS
.ends

* Black-box entry subcircuit for gf180mcu_fd_sc_mcu7t5v0__aoi21_1 abstract view
.subckt gf180mcu_fd_sc_mcu7t5v0__aoi21_1 A1 A2 B ZN VDD VSS
.ends

* Black-box entry subcircuit for gf180mcu_fd_sc_mcu7t5v0__and2_1 abstract view
.subckt gf180mcu_fd_sc_mcu7t5v0__and2_1 A1 A2 Z VDD VSS
.ends

* Black-box entry subcircuit for gf180mcu_fd_sc_mcu7t5v0__fillcap_32 abstract view
.subckt gf180mcu_fd_sc_mcu7t5v0__fillcap_32 VDD VSS
.ends

* Black-box entry subcircuit for gf180mcu_fd_sc_mcu7t5v0__and4_1 abstract view
.subckt gf180mcu_fd_sc_mcu7t5v0__and4_1 A1 A2 A3 A4 Z VDD VSS
.ends

* Black-box entry subcircuit for gf180mcu_fd_sc_mcu7t5v0__nand2_2 abstract view
.subckt gf180mcu_fd_sc_mcu7t5v0__nand2_2 A1 A2 ZN VDD VSS
.ends

* Black-box entry subcircuit for gf180mcu_fd_sc_mcu7t5v0__clkinv_1 abstract view
.subckt gf180mcu_fd_sc_mcu7t5v0__clkinv_1 I ZN VDD VSS
.ends

* Black-box entry subcircuit for gf180mcu_fd_sc_mcu7t5v0__nor2_2 abstract view
.subckt gf180mcu_fd_sc_mcu7t5v0__nor2_2 A1 A2 ZN VDD VSS
.ends

* Black-box entry subcircuit for gf180mcu_fd_sc_mcu7t5v0__clkinv_4 abstract view
.subckt gf180mcu_fd_sc_mcu7t5v0__clkinv_4 I ZN VDD VSS
.ends

* Black-box entry subcircuit for gf180mcu_fd_sc_mcu7t5v0__oai31_2 abstract view
.subckt gf180mcu_fd_sc_mcu7t5v0__oai31_2 A1 A2 A3 B ZN VDD VSS
.ends

* Black-box entry subcircuit for gf180mcu_fd_sc_mcu7t5v0__dffq_2 abstract view
.subckt gf180mcu_fd_sc_mcu7t5v0__dffq_2 D CLK Q VDD VSS
.ends

* Black-box entry subcircuit for gf180mcu_fd_sc_mcu7t5v0__nor2_1 abstract view
.subckt gf180mcu_fd_sc_mcu7t5v0__nor2_1 A1 A2 ZN VDD VSS
.ends

* Black-box entry subcircuit for gf180mcu_fd_sc_mcu7t5v0__nand4_1 abstract view
.subckt gf180mcu_fd_sc_mcu7t5v0__nand4_1 A1 A2 A3 A4 ZN VDD VSS
.ends

* Black-box entry subcircuit for gf180mcu_fd_sc_mcu7t5v0__clkbuf_16 abstract view
.subckt gf180mcu_fd_sc_mcu7t5v0__clkbuf_16 I Z VDD VSS
.ends

* Black-box entry subcircuit for gf180mcu_fd_sc_mcu7t5v0__nand3_1 abstract view
.subckt gf180mcu_fd_sc_mcu7t5v0__nand3_1 A1 A2 A3 ZN VDD VSS
.ends

* Black-box entry subcircuit for gf180mcu_fd_sc_mcu7t5v0__dffq_1 abstract view
.subckt gf180mcu_fd_sc_mcu7t5v0__dffq_1 D CLK Q VDD VSS
.ends

* Black-box entry subcircuit for gf180mcu_fd_sc_mcu7t5v0__oai22_1 abstract view
.subckt gf180mcu_fd_sc_mcu7t5v0__oai22_1 A1 A2 B1 B2 ZN VDD VSS
.ends

* Black-box entry subcircuit for gf180mcu_fd_sc_mcu7t5v0__or4_1 abstract view
.subckt gf180mcu_fd_sc_mcu7t5v0__or4_1 A1 A2 A3 A4 Z VDD VSS
.ends

* Black-box entry subcircuit for gf180mcu_fd_sc_mcu7t5v0__clkbuf_2 abstract view
.subckt gf180mcu_fd_sc_mcu7t5v0__clkbuf_2 I Z VDD VSS
.ends

* Black-box entry subcircuit for gf180mcu_fd_sc_mcu7t5v0__mux4_1 abstract view
.subckt gf180mcu_fd_sc_mcu7t5v0__mux4_1 I0 I1 I2 I3 S0 S1 Z VDD VSS
.ends

* Black-box entry subcircuit for gf180mcu_fd_sc_mcu7t5v0__xnor2_1 abstract view
.subckt gf180mcu_fd_sc_mcu7t5v0__xnor2_1 A1 A2 ZN VDD VSS
.ends

* Black-box entry subcircuit for gf180mcu_fd_sc_mcu7t5v0__buf_2 abstract view
.subckt gf180mcu_fd_sc_mcu7t5v0__buf_2 I Z VDD VSS
.ends

* Black-box entry subcircuit for gf180mcu_fd_sc_mcu7t5v0__or2_1 abstract view
.subckt gf180mcu_fd_sc_mcu7t5v0__or2_1 A1 A2 Z VDD VSS
.ends

* Black-box entry subcircuit for gf180mcu_fd_sc_mcu7t5v0__dlyb_1 abstract view
.subckt gf180mcu_fd_sc_mcu7t5v0__dlyb_1 I Z VDD VSS
.ends

* Black-box entry subcircuit for gf180mcu_fd_sc_mcu7t5v0__aoi221_1 abstract view
.subckt gf180mcu_fd_sc_mcu7t5v0__aoi221_1 A1 A2 B1 B2 C ZN VDD VSS
.ends

* Black-box entry subcircuit for gf180mcu_fd_sc_mcu7t5v0__mux2_2 abstract view
.subckt gf180mcu_fd_sc_mcu7t5v0__mux2_2 I0 I1 S Z VDD VSS
.ends

* Black-box entry subcircuit for gf180mcu_fd_sc_mcu7t5v0__buf_3 abstract view
.subckt gf180mcu_fd_sc_mcu7t5v0__buf_3 I Z VDD VSS
.ends

* Black-box entry subcircuit for gf180mcu_fd_sc_mcu7t5v0__xor3_1 abstract view
.subckt gf180mcu_fd_sc_mcu7t5v0__xor3_1 A1 A2 A3 Z VDD VSS
.ends

* Black-box entry subcircuit for gf180mcu_fd_sc_mcu7t5v0__clkbuf_4 abstract view
.subckt gf180mcu_fd_sc_mcu7t5v0__clkbuf_4 I Z VDD VSS
.ends

* Black-box entry subcircuit for gf180mcu_fd_sc_mcu7t5v0__xnor3_1 abstract view
.subckt gf180mcu_fd_sc_mcu7t5v0__xnor3_1 A1 A2 A3 ZN VDD VSS
.ends

* Black-box entry subcircuit for gf180mcu_fd_sc_mcu7t5v0__oai222_1 abstract view
.subckt gf180mcu_fd_sc_mcu7t5v0__oai222_1 A1 A2 B1 B2 C1 C2 ZN VDD VSS
.ends

* Black-box entry subcircuit for gf180mcu_fd_sc_mcu7t5v0__inv_2 abstract view
.subckt gf180mcu_fd_sc_mcu7t5v0__inv_2 I ZN VDD VSS
.ends

* Black-box entry subcircuit for gf180mcu_fd_sc_mcu7t5v0__nor2_4 abstract view
.subckt gf180mcu_fd_sc_mcu7t5v0__nor2_4 A1 A2 ZN VDD VSS
.ends

* Black-box entry subcircuit for gf180mcu_fd_sc_mcu7t5v0__oai221_1 abstract view
.subckt gf180mcu_fd_sc_mcu7t5v0__oai221_1 A1 A2 B1 B2 C ZN VDD VSS
.ends

* Black-box entry subcircuit for gf180mcu_fd_sc_mcu7t5v0__buf_4 abstract view
.subckt gf180mcu_fd_sc_mcu7t5v0__buf_4 I Z VDD VSS
.ends

* Black-box entry subcircuit for gf180mcu_fd_sc_mcu7t5v0__nor3_2 abstract view
.subckt gf180mcu_fd_sc_mcu7t5v0__nor3_2 A1 A2 A3 ZN VDD VSS
.ends

* Black-box entry subcircuit for gf180mcu_fd_sc_mcu7t5v0__aoi222_1 abstract view
.subckt gf180mcu_fd_sc_mcu7t5v0__aoi222_1 A1 A2 B1 B2 C1 C2 ZN VDD VSS
.ends

* Black-box entry subcircuit for gf180mcu_fd_sc_mcu7t5v0__oai31_1 abstract view
.subckt gf180mcu_fd_sc_mcu7t5v0__oai31_1 A1 A2 A3 B ZN VDD VSS
.ends

* Black-box entry subcircuit for gf180mcu_fd_sc_mcu7t5v0__oai211_1 abstract view
.subckt gf180mcu_fd_sc_mcu7t5v0__oai211_1 A1 A2 B C ZN VDD VSS
.ends

.subckt collatz bs clk co[0] co[10] co[11] co[12] co[13] co[14] co[15] co[1] co[2]
+ co[3] co[4] co[5] co[6] co[7] co[8] co[9] st vdd vss x[0] x[10] x[11] x[12] x[13]
+ x[14] x[15] x[1] x[2] x[3] x[4] x[5] x[6] x[7] x[8] x[9]
XFILLER_82_534 vdd vss gf180mcu_fd_sc_mcu7t5v0__fillcap_64
XFILLER_54_247 vdd vss gf180mcu_fd_sc_mcu7t5v0__fill_1
XTAP_199 vdd vss gf180mcu_fd_sc_mcu7t5v0__filltie
XTAP_188 vdd vss gf180mcu_fd_sc_mcu7t5v0__filltie
XFILLER_27_428 vdd vss gf180mcu_fd_sc_mcu7t5v0__fillcap_64
XANTENNA__338__A1 _061_ vdd vss gf180mcu_fd_sc_mcu7t5v0__antenna
XFILLER_23_634 vdd vss gf180mcu_fd_sc_mcu7t5v0__fillcap_4
XANTENNA__510__A1 _128_ vdd vss gf180mcu_fd_sc_mcu7t5v0__antenna
XFILLER_89_144 vdd vss gf180mcu_fd_sc_mcu7t5v0__fill_1
XFILLER_89_155 vdd vss gf180mcu_fd_sc_mcu7t5v0__fill_2
XFILLER_77_26 vdd vss gf180mcu_fd_sc_mcu7t5v0__fill_2
XFILLER_58_531 vdd vss gf180mcu_fd_sc_mcu7t5v0__fill_1
XFILLER_93_69 vdd vss gf180mcu_fd_sc_mcu7t5v0__fill_1
X_501_ _069_ _227_ _237_ _234_ _238_ vdd vss gf180mcu_fd_sc_mcu7t5v0__oai211_2
X_432_ Datapath.k\[10\] _070_ _177_ vdd vss gf180mcu_fd_sc_mcu7t5v0__xor2_1
XFILLER_73_567 vdd vss gf180mcu_fd_sc_mcu7t5v0__fill_1
X_294_ net15 net16 net2 net3 _066_ vdd vss gf180mcu_fd_sc_mcu7t5v0__nor4_1
X_363_ _114_ _115_ _116_ _017_ vdd vss gf180mcu_fd_sc_mcu7t5v0__oai21_1
XANTENNA__329__A1 _061_ vdd vss gf180mcu_fd_sc_mcu7t5v0__antenna
XFILLER_9_137 vdd vss gf180mcu_fd_sc_mcu7t5v0__fillcap_4
XFILLER_13_144 vdd vss gf180mcu_fd_sc_mcu7t5v0__fillcap_64
XANTENNA__501__A1 _069_ vdd vss gf180mcu_fd_sc_mcu7t5v0__antenna
XFILLER_5_354 vdd vss gf180mcu_fd_sc_mcu7t5v0__fill_1
XFILLER_91_342 vdd vss gf180mcu_fd_sc_mcu7t5v0__fill_2
XFILLER_67_70 vdd vss gf180mcu_fd_sc_mcu7t5v0__fill_1
XFILLER_64_534 vdd vss gf180mcu_fd_sc_mcu7t5v0__fillcap_64
XFILLER_36_247 vdd vss gf180mcu_fd_sc_mcu7t5v0__fill_1
XFILLER_80_2 vdd vss gf180mcu_fd_sc_mcu7t5v0__fillcap_4
XFILLER_67_350 vdd vss gf180mcu_fd_sc_mcu7t5v0__fillcap_4
XFILLER_55_567 vdd vss gf180mcu_fd_sc_mcu7t5v0__fill_1
XFILLER_50_250 vdd vss gf180mcu_fd_sc_mcu7t5v0__fillcap_64
XFILLER_2_346 vdd vss gf180mcu_fd_sc_mcu7t5v0__fill_2
XFILLER_2_313 vdd vss gf180mcu_fd_sc_mcu7t5v0__fillcap_4
XFILLER_93_629 vdd vss gf180mcu_fd_sc_mcu7t5v0__fill_1
XFILLER_46_534 vdd vss gf180mcu_fd_sc_mcu7t5v0__fillcap_64
XFILLER_37_73 vdd vss gf180mcu_fd_sc_mcu7t5v0__fillcap_64
XFILLER_18_247 vdd vss gf180mcu_fd_sc_mcu7t5v0__fill_1
X_346_ Datapath.i\[12\] Datapath.i\[11\] _101_ _105_ vdd vss gf180mcu_fd_sc_mcu7t5v0__and3_1
X_415_ _144_ _145_ _143_ _152_ _162_ vdd vss gf180mcu_fd_sc_mcu7t5v0__aoi211_2
XFILLER_41_283 vdd vss gf180mcu_fd_sc_mcu7t5v0__fill_1
X_277_ _052_ net23 vdd vss gf180mcu_fd_sc_mcu7t5v0__clkbuf_1
XFILLER_68_147 vdd vss gf180mcu_fd_sc_mcu7t5v0__fillcap_16
XFILLER_49_350 vdd vss gf180mcu_fd_sc_mcu7t5v0__fillcap_4
XFILLER_91_161 vdd vss gf180mcu_fd_sc_mcu7t5v0__fill_2
XFILLER_77_681 vdd vss gf180mcu_fd_sc_mcu7t5v0__fillcap_4
XFILLER_37_567 vdd vss gf180mcu_fd_sc_mcu7t5v0__fill_1
XANTENNA__410__B1 _060_ vdd vss gf180mcu_fd_sc_mcu7t5v0__antenna
XFILLER_32_250 vdd vss gf180mcu_fd_sc_mcu7t5v0__fillcap_64
XFILLER_20_456 vdd vss gf180mcu_fd_sc_mcu7t5v0__fillcap_4
XFILLER_74_139 vdd vss gf180mcu_fd_sc_mcu7t5v0__fill_2
XFILLER_74_117 vdd vss gf180mcu_fd_sc_mcu7t5v0__fill_2
XFILLER_28_534 vdd vss gf180mcu_fd_sc_mcu7t5v0__fillcap_64
XFILLER_90_37 vdd vss gf180mcu_fd_sc_mcu7t5v0__fill_2
XANTENNA__401__B1 _115_ vdd vss gf180mcu_fd_sc_mcu7t5v0__antenna
XANTENNA__529__CLK clknet_2_0__leaf_clk vdd vss gf180mcu_fd_sc_mcu7t5v0__antenna
XFILLER_83_673 vdd vss gf180mcu_fd_sc_mcu7t5v0__fillcap_8
XFILLER_70_389 vdd vss gf180mcu_fd_sc_mcu7t5v0__fill_1
XFILLER_51_570 vdd vss gf180mcu_fd_sc_mcu7t5v0__fillcap_64
XFILLER_23_283 vdd vss gf180mcu_fd_sc_mcu7t5v0__fill_1
XFILLER_78_456 vdd vss gf180mcu_fd_sc_mcu7t5v0__fillcap_4
XFILLER_2_176 vdd vss gf180mcu_fd_sc_mcu7t5v0__fill_1
XFILLER_93_437 vdd vss gf180mcu_fd_sc_mcu7t5v0__fill_1
XFILLER_74_684 vdd vss gf180mcu_fd_sc_mcu7t5v0__fillcap_4
XFILLER_74_673 vdd vss gf180mcu_fd_sc_mcu7t5v0__fill_1
XFILLER_73_161 vdd vss gf180mcu_fd_sc_mcu7t5v0__fill_2
XFILLER_59_681 vdd vss gf180mcu_fd_sc_mcu7t5v0__fillcap_4
XFILLER_19_567 vdd vss gf180mcu_fd_sc_mcu7t5v0__fill_1
X_329_ _061_ _092_ _093_ _006_ vdd vss gf180mcu_fd_sc_mcu7t5v0__nor3_1
XFILLER_9_66 vdd vss gf180mcu_fd_sc_mcu7t5v0__fillcap_4
XFILLER_14_250 vdd vss gf180mcu_fd_sc_mcu7t5v0__fillcap_64
XFILLER_88_209 vdd vss gf180mcu_fd_sc_mcu7t5v0__fill_2
XFILLER_43_2 vdd vss gf180mcu_fd_sc_mcu7t5v0__fillcap_64
XFILLER_6_460 vdd vss gf180mcu_fd_sc_mcu7t5v0__fill_1
XFILLER_80_676 vdd vss gf180mcu_fd_sc_mcu7t5v0__fillcap_8
XFILLER_65_673 vdd vss gf180mcu_fd_sc_mcu7t5v0__fillcap_8
XFILLER_64_172 vdd vss gf180mcu_fd_sc_mcu7t5v0__fillcap_4
XFILLER_52_389 vdd vss gf180mcu_fd_sc_mcu7t5v0__fill_1
XFILLER_33_570 vdd vss gf180mcu_fd_sc_mcu7t5v0__fillcap_64
XFILLER_79_209 vdd vss gf180mcu_fd_sc_mcu7t5v0__fill_1
XFILLER_87_286 vdd vss gf180mcu_fd_sc_mcu7t5v0__fillcap_4
XFILLER_83_492 vdd vss gf180mcu_fd_sc_mcu7t5v0__fillcap_4
XFILLER_56_684 vdd vss gf180mcu_fd_sc_mcu7t5v0__fillcap_4
XFILLER_56_673 vdd vss gf180mcu_fd_sc_mcu7t5v0__fill_1
XFILLER_71_687 vdd vss gf180mcu_fd_sc_mcu7t5v0__fill_1
XFILLER_70_131 vdd vss gf180mcu_fd_sc_mcu7t5v0__fill_2
XTAP_507 vdd vss gf180mcu_fd_sc_mcu7t5v0__filltie
XFILLER_7_279 vdd vss gf180mcu_fd_sc_mcu7t5v0__fillcap_4
XFILLER_11_286 vdd vss gf180mcu_fd_sc_mcu7t5v0__fillcap_64
XFILLER_93_212 vdd vss gf180mcu_fd_sc_mcu7t5v0__fill_1
XTAP_529 vdd vss gf180mcu_fd_sc_mcu7t5v0__filltie
XTAP_518 vdd vss gf180mcu_fd_sc_mcu7t5v0__filltie
XANTENNA__464__I0 Datapath.k\[14\] vdd vss gf180mcu_fd_sc_mcu7t5v0__antenna
XFILLER_75_70 vdd vss gf180mcu_fd_sc_mcu7t5v0__fill_1
XFILLER_62_676 vdd vss gf180mcu_fd_sc_mcu7t5v0__fillcap_8
XFILLER_47_673 vdd vss gf180mcu_fd_sc_mcu7t5v0__fillcap_8
XFILLER_46_172 vdd vss gf180mcu_fd_sc_mcu7t5v0__fillcap_4
XFILLER_34_389 vdd vss gf180mcu_fd_sc_mcu7t5v0__fill_1
XFILLER_15_570 vdd vss gf180mcu_fd_sc_mcu7t5v0__fillcap_64
XANTENNA__392__A2 _037_ vdd vss gf180mcu_fd_sc_mcu7t5v0__antenna
XFILLER_84_289 vdd vss gf180mcu_fd_sc_mcu7t5v0__fill_2
XFILLER_84_234 vdd vss gf180mcu_fd_sc_mcu7t5v0__fill_2
XFILLER_69_286 vdd vss gf180mcu_fd_sc_mcu7t5v0__fillcap_64
XFILLER_65_492 vdd vss gf180mcu_fd_sc_mcu7t5v0__fillcap_4
XFILLER_38_684 vdd vss gf180mcu_fd_sc_mcu7t5v0__fillcap_4
XFILLER_38_673 vdd vss gf180mcu_fd_sc_mcu7t5v0__fill_1
XANTENNA__383__A2 _133_ vdd vss gf180mcu_fd_sc_mcu7t5v0__antenna
XFILLER_71_28 vdd vss gf180mcu_fd_sc_mcu7t5v0__fill_2
XFILLER_53_687 vdd vss gf180mcu_fd_sc_mcu7t5v0__fill_1
XFILLER_75_223 vdd vss gf180mcu_fd_sc_mcu7t5v0__fill_2
XFILLER_75_212 vdd vss gf180mcu_fd_sc_mcu7t5v0__fill_1
XFILLER_75_201 vdd vss gf180mcu_fd_sc_mcu7t5v0__fill_2
XFILLER_0_466 vdd vss gf180mcu_fd_sc_mcu7t5v0__fillcap_4
XFILLER_0_422 vdd vss gf180mcu_fd_sc_mcu7t5v0__fillcap_4
XFILLER_90_226 vdd vss gf180mcu_fd_sc_mcu7t5v0__fill_2
XFILLER_44_676 vdd vss gf180mcu_fd_sc_mcu7t5v0__fillcap_8
XFILLER_45_73 vdd vss gf180mcu_fd_sc_mcu7t5v0__fillcap_64
XFILLER_29_673 vdd vss gf180mcu_fd_sc_mcu7t5v0__fillcap_8
XFILLER_16_389 vdd vss gf180mcu_fd_sc_mcu7t5v0__fill_1
XFILLER_28_172 vdd vss gf180mcu_fd_sc_mcu7t5v0__fillcap_4
XFILLER_6_34 vdd vss gf180mcu_fd_sc_mcu7t5v0__fill_1
XTAP_304 vdd vss gf180mcu_fd_sc_mcu7t5v0__filltie
XTAP_315 vdd vss gf180mcu_fd_sc_mcu7t5v0__filltie
XTAP_326 vdd vss gf180mcu_fd_sc_mcu7t5v0__filltie
XTAP_337 vdd vss gf180mcu_fd_sc_mcu7t5v0__filltie
XTAP_348 vdd vss gf180mcu_fd_sc_mcu7t5v0__filltie
XFILLER_81_215 vdd vss gf180mcu_fd_sc_mcu7t5v0__fill_1
XFILLER_66_289 vdd vss gf180mcu_fd_sc_mcu7t5v0__fillcap_16
XFILLER_47_492 vdd vss gf180mcu_fd_sc_mcu7t5v0__fillcap_4
XTAP_359 vdd vss gf180mcu_fd_sc_mcu7t5v0__filltie
XANTENNA__365__A2 _117_ vdd vss gf180mcu_fd_sc_mcu7t5v0__antenna
XFILLER_50_602 vdd vss gf180mcu_fd_sc_mcu7t5v0__fill_1
XFILLER_35_687 vdd vss gf180mcu_fd_sc_mcu7t5v0__fill_1
XFILLER_30_392 vdd vss gf180mcu_fd_sc_mcu7t5v0__fillcap_64
XFILLER_89_315 vdd vss gf180mcu_fd_sc_mcu7t5v0__fill_2
XTAP_893 vdd vss gf180mcu_fd_sc_mcu7t5v0__filltie
XTAP_882 vdd vss gf180mcu_fd_sc_mcu7t5v0__filltie
XTAP_871 vdd vss gf180mcu_fd_sc_mcu7t5v0__filltie
XTAP_860 vdd vss gf180mcu_fd_sc_mcu7t5v0__filltie
XFILLER_57_212 vdd vss gf180mcu_fd_sc_mcu7t5v0__fill_1
XFILLER_1_208 vdd vss gf180mcu_fd_sc_mcu7t5v0__fillcap_4
XFILLER_40_101 vdd vss gf180mcu_fd_sc_mcu7t5v0__fillcap_4
XFILLER_26_676 vdd vss gf180mcu_fd_sc_mcu7t5v0__fillcap_8
Xoutput20 net20 x[10] vdd vss gf180mcu_fd_sc_mcu7t5v0__clkbuf_3
Xoutput31 net31 x[6] vdd vss gf180mcu_fd_sc_mcu7t5v0__clkbuf_3
XFILLER_88_392 vdd vss gf180mcu_fd_sc_mcu7t5v0__fillcap_64
XANTENNA__292__A1 net11 vdd vss gf180mcu_fd_sc_mcu7t5v0__antenna
XFILLER_76_598 vdd vss gf180mcu_fd_sc_mcu7t5v0__fillcap_4
XFILLER_63_215 vdd vss gf180mcu_fd_sc_mcu7t5v0__fillcap_64
XFILLER_0_241 vdd vss gf180mcu_fd_sc_mcu7t5v0__fillcap_4
XPHY_170 vdd vss gf180mcu_fd_sc_mcu7t5v0__endcap
XFILLER_32_602 vdd vss gf180mcu_fd_sc_mcu7t5v0__fill_1
XFILLER_17_687 vdd vss gf180mcu_fd_sc_mcu7t5v0__fill_1
XFILLER_29_492 vdd vss gf180mcu_fd_sc_mcu7t5v0__fillcap_4
XPHY_181 vdd vss gf180mcu_fd_sc_mcu7t5v0__endcap
XFILLER_82_6 vdd vss gf180mcu_fd_sc_mcu7t5v0__fill_2
XFILLER_8_385 vdd vss gf180mcu_fd_sc_mcu7t5v0__fillcap_4
XFILLER_12_392 vdd vss gf180mcu_fd_sc_mcu7t5v0__fillcap_64
XFILLER_86_307 vdd vss gf180mcu_fd_sc_mcu7t5v0__fill_2
XANTENNA__283__A1 _036_ vdd vss gf180mcu_fd_sc_mcu7t5v0__antenna
XANTENNA__360__I Datapath.k\[2\] vdd vss gf180mcu_fd_sc_mcu7t5v0__antenna
XFILLER_39_212 vdd vss gf180mcu_fd_sc_mcu7t5v0__fill_1
XTAP_189 vdd vss gf180mcu_fd_sc_mcu7t5v0__filltie
XFILLER_10_318 vdd vss gf180mcu_fd_sc_mcu7t5v0__fill_1
XFILLER_22_101 vdd vss gf180mcu_fd_sc_mcu7t5v0__fillcap_4
XFILLER_93_37 vdd vss gf180mcu_fd_sc_mcu7t5v0__fill_2
XFILLER_93_15 vdd vss gf180mcu_fd_sc_mcu7t5v0__fill_2
X_500_ Datapath.k\[17\] Datapath.k\[16\] _237_ vdd vss gf180mcu_fd_sc_mcu7t5v0__nand2_1
XFILLER_77_38 vdd vss gf180mcu_fd_sc_mcu7t5v0__fill_2
XFILLER_58_598 vdd vss gf180mcu_fd_sc_mcu7t5v0__fillcap_4
XTAP_690 vdd vss gf180mcu_fd_sc_mcu7t5v0__filltie
XFILLER_45_215 vdd vss gf180mcu_fd_sc_mcu7t5v0__fillcap_64
XANTENNA__274__A1 Datapath.i\[12\] vdd vss gf180mcu_fd_sc_mcu7t5v0__antenna
X_362_ _059_ Datapath.k\[1\] net8 _061_ _116_ vdd vss gf180mcu_fd_sc_mcu7t5v0__aoi22_1
X_431_ _169_ _175_ _176_ _025_ vdd vss gf180mcu_fd_sc_mcu7t5v0__oai21_1
XFILLER_41_421 vdd vss gf180mcu_fd_sc_mcu7t5v0__fillcap_4
XFILLER_14_602 vdd vss gf180mcu_fd_sc_mcu7t5v0__fill_1
X_293_ _062_ net8 net9 net10 _065_ vdd vss gf180mcu_fd_sc_mcu7t5v0__nor4_1
XANTENNA__501__A2 _227_ vdd vss gf180mcu_fd_sc_mcu7t5v0__antenna
XFILLER_68_318 vdd vss gf180mcu_fd_sc_mcu7t5v0__fill_1
XFILLER_91_354 vdd vss gf180mcu_fd_sc_mcu7t5v0__fill_1
XFILLER_91_310 vdd vss gf180mcu_fd_sc_mcu7t5v0__fill_2
XFILLER_83_70 vdd vss gf180mcu_fd_sc_mcu7t5v0__fill_1
XFILLER_73_2 vdd vss gf180mcu_fd_sc_mcu7t5v0__fill_2
XFILLER_20_605 vdd vss gf180mcu_fd_sc_mcu7t5v0__fillcap_64
XFILLER_87_638 vdd vss gf180mcu_fd_sc_mcu7t5v0__fill_1
XANTENNA__256__A1 Datapath.i\[3\] vdd vss gf180mcu_fd_sc_mcu7t5v0__antenna
XFILLER_27_215 vdd vss gf180mcu_fd_sc_mcu7t5v0__fillcap_64
XFILLER_82_321 vdd vss gf180mcu_fd_sc_mcu7t5v0__fillcap_64
XFILLER_70_527 vdd vss gf180mcu_fd_sc_mcu7t5v0__fillcap_4
XFILLER_23_421 vdd vss gf180mcu_fd_sc_mcu7t5v0__fillcap_4
XFILLER_6_108 vdd vss gf180mcu_fd_sc_mcu7t5v0__fillcap_64
XFILLER_11_638 vdd vss gf180mcu_fd_sc_mcu7t5v0__fill_1
XFILLER_88_37 vdd vss gf180mcu_fd_sc_mcu7t5v0__fill_2
XFILLER_88_15 vdd vss gf180mcu_fd_sc_mcu7t5v0__fill_2
XANTENNA__495__A1 Datapath.k\[17\] vdd vss gf180mcu_fd_sc_mcu7t5v0__antenna
XFILLER_78_605 vdd vss gf180mcu_fd_sc_mcu7t5v0__fillcap_64
XANTENNA__247__A1 _036_ vdd vss gf180mcu_fd_sc_mcu7t5v0__antenna
XFILLER_73_354 vdd vss gf180mcu_fd_sc_mcu7t5v0__fill_1
X_345_ Datapath.i\[11\] _101_ Datapath.i\[12\] _104_ vdd vss gf180mcu_fd_sc_mcu7t5v0__aoi21_1
X_414_ _072_ _131_ _160_ _161_ vdd vss gf180mcu_fd_sc_mcu7t5v0__and3_1
XFILLER_53_73 vdd vss gf180mcu_fd_sc_mcu7t5v0__fillcap_64
X_276_ Datapath.i\[13\] _039_ _052_ vdd vss gf180mcu_fd_sc_mcu7t5v0__and2_1
XFILLER_5_141 vdd vss gf180mcu_fd_sc_mcu7t5v0__fill_1
XFILLER_78_81 vdd vss gf180mcu_fd_sc_mcu7t5v0__fillcap_4
XFILLER_69_638 vdd vss gf180mcu_fd_sc_mcu7t5v0__fill_1
XFILLER_68_115 vdd vss gf180mcu_fd_sc_mcu7t5v0__fillcap_32
XANTENNA__410__A1 Datapath.k\[7\] vdd vss gf180mcu_fd_sc_mcu7t5v0__antenna
XANTENNA__410__B2 net14 vdd vss gf180mcu_fd_sc_mcu7t5v0__antenna
XFILLER_64_321 vdd vss gf180mcu_fd_sc_mcu7t5v0__fillcap_64
XFILLER_52_527 vdd vss gf180mcu_fd_sc_mcu7t5v0__fillcap_4
XFILLER_59_137 vdd vss gf180mcu_fd_sc_mcu7t5v0__fillcap_4
XFILLER_83_685 vdd vss gf180mcu_fd_sc_mcu7t5v0__fill_2
XFILLER_83_641 vdd vss gf180mcu_fd_sc_mcu7t5v0__fillcap_32
XFILLER_74_39 vdd vss gf180mcu_fd_sc_mcu7t5v0__fill_1
XFILLER_55_354 vdd vss gf180mcu_fd_sc_mcu7t5v0__fill_1
XANTENNA__401__B2 Datapath.k\[7\] vdd vss gf180mcu_fd_sc_mcu7t5v0__antenna
XFILLER_90_16 vdd vss gf180mcu_fd_sc_mcu7t5v0__fill_2
XANTENNA__401__A1 _055_ vdd vss gf180mcu_fd_sc_mcu7t5v0__antenna
XFILLER_3_634 vdd vss gf180mcu_fd_sc_mcu7t5v0__fillcap_4
XFILLER_7_428 vdd vss gf180mcu_fd_sc_mcu7t5v0__fillcap_64
XANTENNA__468__A1 Datapath.k\[13\] vdd vss gf180mcu_fd_sc_mcu7t5v0__antenna
XFILLER_3_2 vdd vss gf180mcu_fd_sc_mcu7t5v0__fillcap_64
XFILLER_2_188 vdd vss gf180mcu_fd_sc_mcu7t5v0__fill_2
XFILLER_73_184 vdd vss gf180mcu_fd_sc_mcu7t5v0__fill_2
XFILLER_73_173 vdd vss gf180mcu_fd_sc_mcu7t5v0__fillcap_4
XFILLER_61_357 vdd vss gf180mcu_fd_sc_mcu7t5v0__fillcap_64
XFILLER_46_321 vdd vss gf180mcu_fd_sc_mcu7t5v0__fillcap_64
XFILLER_34_527 vdd vss gf180mcu_fd_sc_mcu7t5v0__fillcap_4
XFILLER_0_69 vdd vss gf180mcu_fd_sc_mcu7t5v0__fill_1
X_328_ Datapath.i\[6\] Datapath.i\[5\] Datapath.i\[4\] _087_ _093_ vdd vss gf180mcu_fd_sc_mcu7t5v0__and4_1
X_259_ _043_ net29 vdd vss gf180mcu_fd_sc_mcu7t5v0__clkbuf_1
XANTENNA__459__A1 Datapath.k\[13\] vdd vss gf180mcu_fd_sc_mcu7t5v0__antenna
XFILLER_36_2 vdd vss gf180mcu_fd_sc_mcu7t5v0__fillcap_32
XFILLER_92_460 vdd vss gf180mcu_fd_sc_mcu7t5v0__fill_1
XFILLER_65_685 vdd vss gf180mcu_fd_sc_mcu7t5v0__fill_2
XFILLER_65_641 vdd vss gf180mcu_fd_sc_mcu7t5v0__fillcap_32
XFILLER_37_354 vdd vss gf180mcu_fd_sc_mcu7t5v0__fill_1
XFILLER_92_471 vdd vss gf180mcu_fd_sc_mcu7t5v0__fillcap_4
XFILLER_20_243 vdd vss gf180mcu_fd_sc_mcu7t5v0__fillcap_4
XFILLER_85_49 vdd vss gf180mcu_fd_sc_mcu7t5v0__fill_2
XFILLER_85_16 vdd vss gf180mcu_fd_sc_mcu7t5v0__fill_2
XFILLER_0_637 vdd vss gf180mcu_fd_sc_mcu7t5v0__fill_2
XFILLER_70_143 vdd vss gf180mcu_fd_sc_mcu7t5v0__fill_2
XFILLER_43_357 vdd vss gf180mcu_fd_sc_mcu7t5v0__fillcap_64
XFILLER_16_527 vdd vss gf180mcu_fd_sc_mcu7t5v0__fillcap_4
XFILLER_28_321 vdd vss gf180mcu_fd_sc_mcu7t5v0__fillcap_64
XFILLER_70_165 vdd vss gf180mcu_fd_sc_mcu7t5v0__fill_2
XTAP_519 vdd vss gf180mcu_fd_sc_mcu7t5v0__filltie
XTAP_508 vdd vss gf180mcu_fd_sc_mcu7t5v0__filltie
XANTENNA__464__I1 net5 vdd vss gf180mcu_fd_sc_mcu7t5v0__antenna
XFILLER_78_221 vdd vss gf180mcu_fd_sc_mcu7t5v0__fill_2
XFILLER_74_460 vdd vss gf180mcu_fd_sc_mcu7t5v0__fill_1
XFILLER_47_641 vdd vss gf180mcu_fd_sc_mcu7t5v0__fillcap_32
XFILLER_19_354 vdd vss gf180mcu_fd_sc_mcu7t5v0__fill_1
XFILLER_91_70 vdd vss gf180mcu_fd_sc_mcu7t5v0__fill_1
XFILLER_47_685 vdd vss gf180mcu_fd_sc_mcu7t5v0__fill_2
XANTENNA__519__CLK clknet_2_0__leaf_clk vdd vss gf180mcu_fd_sc_mcu7t5v0__antenna
XFILLER_84_224 vdd vss gf180mcu_fd_sc_mcu7t5v0__fill_2
XFILLER_25_357 vdd vss gf180mcu_fd_sc_mcu7t5v0__fillcap_64
XFILLER_80_463 vdd vss gf180mcu_fd_sc_mcu7t5v0__fillcap_64
XFILLER_52_176 vdd vss gf180mcu_fd_sc_mcu7t5v0__fill_1
XFILLER_21_563 vdd vss gf180mcu_fd_sc_mcu7t5v0__fillcap_4
XFILLER_75_279 vdd vss gf180mcu_fd_sc_mcu7t5v0__fillcap_4
XFILLER_29_641 vdd vss gf180mcu_fd_sc_mcu7t5v0__fillcap_32
XFILLER_0_489 vdd vss gf180mcu_fd_sc_mcu7t5v0__fill_1
XANTENNA__359__B1 _112_ vdd vss gf180mcu_fd_sc_mcu7t5v0__antenna
XFILLER_71_496 vdd vss gf180mcu_fd_sc_mcu7t5v0__fill_1
XFILLER_56_460 vdd vss gf180mcu_fd_sc_mcu7t5v0__fill_1
XFILLER_29_685 vdd vss gf180mcu_fd_sc_mcu7t5v0__fill_2
XFILLER_61_73 vdd vss gf180mcu_fd_sc_mcu7t5v0__fillcap_64
XFILLER_8_534 vdd vss gf180mcu_fd_sc_mcu7t5v0__fillcap_64
XFILLER_79_563 vdd vss gf180mcu_fd_sc_mcu7t5v0__fillcap_4
XFILLER_3_283 vdd vss gf180mcu_fd_sc_mcu7t5v0__fill_1
XTAP_305 vdd vss gf180mcu_fd_sc_mcu7t5v0__filltie
XTAP_316 vdd vss gf180mcu_fd_sc_mcu7t5v0__filltie
XTAP_327 vdd vss gf180mcu_fd_sc_mcu7t5v0__filltie
XTAP_338 vdd vss gf180mcu_fd_sc_mcu7t5v0__filltie
XTAP_349 vdd vss gf180mcu_fd_sc_mcu7t5v0__filltie
XFILLER_66_257 vdd vss gf180mcu_fd_sc_mcu7t5v0__fillcap_32
XFILLER_62_463 vdd vss gf180mcu_fd_sc_mcu7t5v0__fillcap_64
XFILLER_50_669 vdd vss gf180mcu_fd_sc_mcu7t5v0__fillcap_4
XFILLER_34_176 vdd vss gf180mcu_fd_sc_mcu7t5v0__fill_1
XFILLER_89_327 vdd vss gf180mcu_fd_sc_mcu7t5v0__fill_2
XTAP_894 vdd vss gf180mcu_fd_sc_mcu7t5v0__filltie
XTAP_883 vdd vss gf180mcu_fd_sc_mcu7t5v0__filltie
XTAP_872 vdd vss gf180mcu_fd_sc_mcu7t5v0__filltie
XTAP_861 vdd vss gf180mcu_fd_sc_mcu7t5v0__filltie
XTAP_850 vdd vss gf180mcu_fd_sc_mcu7t5v0__filltie
XANTENNA_input11_I co[4] vdd vss gf180mcu_fd_sc_mcu7t5v0__antenna
XFILLER_82_39 vdd vss gf180mcu_fd_sc_mcu7t5v0__fill_1
XFILLER_57_279 vdd vss gf180mcu_fd_sc_mcu7t5v0__fillcap_4
XFILLER_53_496 vdd vss gf180mcu_fd_sc_mcu7t5v0__fill_1
XFILLER_38_460 vdd vss gf180mcu_fd_sc_mcu7t5v0__fill_1
XFILLER_15_66 vdd vss gf180mcu_fd_sc_mcu7t5v0__fillcap_4
XFILLER_40_179 vdd vss gf180mcu_fd_sc_mcu7t5v0__fillcap_64
Xoutput21 net21 x[11] vdd vss gf180mcu_fd_sc_mcu7t5v0__clkbuf_3
Xoutput32 net32 x[7] vdd vss gf180mcu_fd_sc_mcu7t5v0__clkbuf_3
XANTENNA__292__A2 net12 vdd vss gf180mcu_fd_sc_mcu7t5v0__antenna
XFILLER_0_275 vdd vss gf180mcu_fd_sc_mcu7t5v0__fillcap_4
XPHY_182 vdd vss gf180mcu_fd_sc_mcu7t5v0__endcap
XPHY_171 vdd vss gf180mcu_fd_sc_mcu7t5v0__endcap
XPHY_160 vdd vss gf180mcu_fd_sc_mcu7t5v0__endcap
XANTENNA__347__A3 _105_ vdd vss gf180mcu_fd_sc_mcu7t5v0__antenna
XFILLER_44_463 vdd vss gf180mcu_fd_sc_mcu7t5v0__fillcap_64
XFILLER_32_669 vdd vss gf180mcu_fd_sc_mcu7t5v0__fillcap_4
XFILLER_16_176 vdd vss gf180mcu_fd_sc_mcu7t5v0__fill_1
XFILLER_75_6 vdd vss gf180mcu_fd_sc_mcu7t5v0__fill_2
XANTENNA_input3_I co[11] vdd vss gf180mcu_fd_sc_mcu7t5v0__antenna
XANTENNA__283__A2 Datapath.k\[1\] vdd vss gf180mcu_fd_sc_mcu7t5v0__antenna
XFILLER_39_279 vdd vss gf180mcu_fd_sc_mcu7t5v0__fillcap_4
XFILLER_35_496 vdd vss gf180mcu_fd_sc_mcu7t5v0__fill_1
XANTENNA__338__A3 _099_ vdd vss gf180mcu_fd_sc_mcu7t5v0__antenna
XFILLER_22_179 vdd vss gf180mcu_fd_sc_mcu7t5v0__fillcap_64
XFILLER_89_157 vdd vss gf180mcu_fd_sc_mcu7t5v0__fill_1
XTAP_691 vdd vss gf180mcu_fd_sc_mcu7t5v0__filltie
XTAP_680 vdd vss gf180mcu_fd_sc_mcu7t5v0__filltie
XANTENNA__274__A2 _039_ vdd vss gf180mcu_fd_sc_mcu7t5v0__antenna
X_292_ net11 net12 net13 net14 _064_ vdd vss gf180mcu_fd_sc_mcu7t5v0__nor4_1
X_430_ _070_ _037_ _060_ net16 _176_ vdd vss gf180mcu_fd_sc_mcu7t5v0__aoi22_1
X_361_ _036_ _055_ _115_ vdd vss gf180mcu_fd_sc_mcu7t5v0__nand2_2
XANTENNA__329__A3 _093_ vdd vss gf180mcu_fd_sc_mcu7t5v0__antenna
XFILLER_41_499 vdd vss gf180mcu_fd_sc_mcu7t5v0__fillcap_64
XFILLER_14_669 vdd vss gf180mcu_fd_sc_mcu7t5v0__fillcap_4
XFILLER_26_463 vdd vss gf180mcu_fd_sc_mcu7t5v0__fillcap_64
XFILLER_1_573 vdd vss gf180mcu_fd_sc_mcu7t5v0__fill_2
XFILLER_91_322 vdd vss gf180mcu_fd_sc_mcu7t5v0__fill_2
XFILLER_76_385 vdd vss gf180mcu_fd_sc_mcu7t5v0__fillcap_4
XFILLER_51_208 vdd vss gf180mcu_fd_sc_mcu7t5v0__fillcap_4
XFILLER_17_496 vdd vss gf180mcu_fd_sc_mcu7t5v0__fill_1
XFILLER_8_172 vdd vss gf180mcu_fd_sc_mcu7t5v0__fillcap_4
XFILLER_9_673 vdd vss gf180mcu_fd_sc_mcu7t5v0__fillcap_8
XFILLER_86_105 vdd vss gf180mcu_fd_sc_mcu7t5v0__fill_1
XFILLER_66_2 vdd vss gf180mcu_fd_sc_mcu7t5v0__fillcap_32
XANTENNA__256__A2 _039_ vdd vss gf180mcu_fd_sc_mcu7t5v0__antenna
XFILLER_10_105 vdd vss gf180mcu_fd_sc_mcu7t5v0__fill_1
XFILLER_23_499 vdd vss gf180mcu_fd_sc_mcu7t5v0__fillcap_64
XFILLER_88_27 vdd vss gf180mcu_fd_sc_mcu7t5v0__fill_2
XANTENNA__281__I _054_ vdd vss gf180mcu_fd_sc_mcu7t5v0__antenna
XFILLER_12_34 vdd vss gf180mcu_fd_sc_mcu7t5v0__fill_1
XANTENNA__495__A2 _055_ vdd vss gf180mcu_fd_sc_mcu7t5v0__antenna
XANTENNA__247__A2 FSM.CS\[1\] vdd vss gf180mcu_fd_sc_mcu7t5v0__antenna
XFILLER_2_337 vdd vss gf180mcu_fd_sc_mcu7t5v0__fill_2
XFILLER_92_108 vdd vss gf180mcu_fd_sc_mcu7t5v0__fill_1
X_413_ _129_ _136_ _143_ _152_ _160_ vdd vss gf180mcu_fd_sc_mcu7t5v0__nor4_1
XFILLER_58_385 vdd vss gf180mcu_fd_sc_mcu7t5v0__fillcap_4
XFILLER_33_208 vdd vss gf180mcu_fd_sc_mcu7t5v0__fillcap_4
X_344_ _103_ _011_ vdd vss gf180mcu_fd_sc_mcu7t5v0__clkinv_1
X_275_ _051_ net22 vdd vss gf180mcu_fd_sc_mcu7t5v0__clkbuf_1
XFILLER_6_676 vdd vss gf180mcu_fd_sc_mcu7t5v0__fillcap_8
XFILLER_92_653 vdd vss gf180mcu_fd_sc_mcu7t5v0__fill_2
XFILLER_76_160 vdd vss gf180mcu_fd_sc_mcu7t5v0__fill_2
XFILLER_68_105 vdd vss gf180mcu_fd_sc_mcu7t5v0__fill_1
XFILLER_1_381 vdd vss gf180mcu_fd_sc_mcu7t5v0__fillcap_32
XFILLER_91_163 vdd vss gf180mcu_fd_sc_mcu7t5v0__fill_1
XFILLER_91_141 vdd vss gf180mcu_fd_sc_mcu7t5v0__fill_1
XANTENNA__410__A2 _037_ vdd vss gf180mcu_fd_sc_mcu7t5v0__antenna
XFILLER_9_492 vdd vss gf180mcu_fd_sc_mcu7t5v0__fillcap_4
XFILLER_87_425 vdd vss gf180mcu_fd_sc_mcu7t5v0__fill_1
XFILLER_74_108 vdd vss gf180mcu_fd_sc_mcu7t5v0__fill_1
XFILLER_74_18 vdd vss gf180mcu_fd_sc_mcu7t5v0__fill_2
XFILLER_70_314 vdd vss gf180mcu_fd_sc_mcu7t5v0__fillcap_4
XFILLER_15_208 vdd vss gf180mcu_fd_sc_mcu7t5v0__fillcap_4
XANTENNA__401__A2 net13 vdd vss gf180mcu_fd_sc_mcu7t5v0__antenna
XFILLER_11_425 vdd vss gf180mcu_fd_sc_mcu7t5v0__fill_1