* NGSPICE file created from collatz.ext - technology: gf180mcuC

* Black-box entry subcircuit for gf180mcu_fd_sc_mcu7t5v0__filltie abstract view
.subckt gf180mcu_fd_sc_mcu7t5v0__filltie VDD VSS
.ends

* Black-box entry subcircuit for gf180mcu_fd_sc_mcu7t5v0__antenna abstract view
.subckt gf180mcu_fd_sc_mcu7t5v0__antenna I VDD VSS
.ends

* Black-box entry subcircuit for gf180mcu_fd_sc_mcu7t5v0__buf_2 abstract view
.subckt gf180mcu_fd_sc_mcu7t5v0__buf_2 I Z VDD VSS
.ends

* Black-box entry subcircuit for gf180mcu_fd_sc_mcu7t5v0__nand2_1 abstract view
.subckt gf180mcu_fd_sc_mcu7t5v0__nand2_1 A1 A2 ZN VDD VSS
.ends

* Black-box entry subcircuit for gf180mcu_fd_sc_mcu7t5v0__fill_2 abstract view
.subckt gf180mcu_fd_sc_mcu7t5v0__fill_2 VDD VSS
.ends

* Black-box entry subcircuit for gf180mcu_fd_sc_mcu7t5v0__and2_1 abstract view
.subckt gf180mcu_fd_sc_mcu7t5v0__and2_1 A1 A2 Z VDD VSS
.ends

* Black-box entry subcircuit for gf180mcu_fd_sc_mcu7t5v0__fill_1 abstract view
.subckt gf180mcu_fd_sc_mcu7t5v0__fill_1 VDD VSS
.ends

* Black-box entry subcircuit for gf180mcu_fd_sc_mcu7t5v0__fillcap_4 abstract view
.subckt gf180mcu_fd_sc_mcu7t5v0__fillcap_4 VDD VSS
.ends

* Black-box entry subcircuit for gf180mcu_fd_sc_mcu7t5v0__fillcap_8 abstract view
.subckt gf180mcu_fd_sc_mcu7t5v0__fillcap_8 VDD VSS
.ends

* Black-box entry subcircuit for gf180mcu_fd_sc_mcu7t5v0__fillcap_64 abstract view
.subckt gf180mcu_fd_sc_mcu7t5v0__fillcap_64 VDD VSS
.ends

* Black-box entry subcircuit for gf180mcu_fd_sc_mcu7t5v0__inv_2 abstract view
.subckt gf180mcu_fd_sc_mcu7t5v0__inv_2 I ZN VDD VSS
.ends

* Black-box entry subcircuit for gf180mcu_fd_sc_mcu7t5v0__clkinv_1 abstract view
.subckt gf180mcu_fd_sc_mcu7t5v0__clkinv_1 I ZN VDD VSS
.ends

* Black-box entry subcircuit for gf180mcu_fd_sc_mcu7t5v0__dffq_1 abstract view
.subckt gf180mcu_fd_sc_mcu7t5v0__dffq_1 D CLK Q VDD VSS
.ends

* Black-box entry subcircuit for gf180mcu_fd_sc_mcu7t5v0__nor2_1 abstract view
.subckt gf180mcu_fd_sc_mcu7t5v0__nor2_1 A1 A2 ZN VDD VSS
.ends

* Black-box entry subcircuit for gf180mcu_fd_sc_mcu7t5v0__clkbuf_3 abstract view
.subckt gf180mcu_fd_sc_mcu7t5v0__clkbuf_3 I Z VDD VSS
.ends

* Black-box entry subcircuit for gf180mcu_fd_sc_mcu7t5v0__aoi221_1 abstract view
.subckt gf180mcu_fd_sc_mcu7t5v0__aoi221_1 A1 A2 B1 B2 C ZN VDD VSS
.ends

* Black-box entry subcircuit for gf180mcu_fd_sc_mcu7t5v0__clkbuf_1 abstract view
.subckt gf180mcu_fd_sc_mcu7t5v0__clkbuf_1 I Z VDD VSS
.ends

* Black-box entry subcircuit for gf180mcu_fd_sc_mcu7t5v0__or2_1 abstract view
.subckt gf180mcu_fd_sc_mcu7t5v0__or2_1 A1 A2 Z VDD VSS
.ends

* Black-box entry subcircuit for gf180mcu_fd_sc_mcu7t5v0__fillcap_32 abstract view
.subckt gf180mcu_fd_sc_mcu7t5v0__fillcap_32 VDD VSS
.ends

* Black-box entry subcircuit for gf180mcu_fd_sc_mcu7t5v0__nand3_1 abstract view
.subckt gf180mcu_fd_sc_mcu7t5v0__nand3_1 A1 A2 A3 ZN VDD VSS
.ends

* Black-box entry subcircuit for gf180mcu_fd_sc_mcu7t5v0__aoi21_1 abstract view
.subckt gf180mcu_fd_sc_mcu7t5v0__aoi21_1 A1 A2 B ZN VDD VSS
.ends

* Black-box entry subcircuit for gf180mcu_fd_sc_mcu7t5v0__oai21_1 abstract view
.subckt gf180mcu_fd_sc_mcu7t5v0__oai21_1 A1 A2 B ZN VDD VSS
.ends

* Black-box entry subcircuit for gf180mcu_fd_sc_mcu7t5v0__clkinv_2 abstract view
.subckt gf180mcu_fd_sc_mcu7t5v0__clkinv_2 I ZN VDD VSS
.ends

* Black-box entry subcircuit for gf180mcu_fd_sc_mcu7t5v0__fillcap_16 abstract view
.subckt gf180mcu_fd_sc_mcu7t5v0__fillcap_16 VDD VSS
.ends

* Black-box entry subcircuit for gf180mcu_fd_sc_mcu7t5v0__nand4_2 abstract view
.subckt gf180mcu_fd_sc_mcu7t5v0__nand4_2 A1 A2 A3 A4 ZN VDD VSS
.ends

* Black-box entry subcircuit for gf180mcu_fd_sc_mcu7t5v0__nor4_1 abstract view
.subckt gf180mcu_fd_sc_mcu7t5v0__nor4_1 A1 A2 A3 A4 ZN VDD VSS
.ends

* Black-box entry subcircuit for gf180mcu_fd_sc_mcu7t5v0__aoi22_1 abstract view
.subckt gf180mcu_fd_sc_mcu7t5v0__aoi22_1 A1 A2 B1 B2 ZN VDD VSS
.ends

* Black-box entry subcircuit for gf180mcu_fd_sc_mcu7t5v0__endcap abstract view
.subckt gf180mcu_fd_sc_mcu7t5v0__endcap VDD VSS
.ends

* Black-box entry subcircuit for gf180mcu_fd_sc_mcu7t5v0__clkbuf_16 abstract view
.subckt gf180mcu_fd_sc_mcu7t5v0__clkbuf_16 I Z VDD VSS
.ends

* Black-box entry subcircuit for gf180mcu_fd_sc_mcu7t5v0__nand4_1 abstract view
.subckt gf180mcu_fd_sc_mcu7t5v0__nand4_1 A1 A2 A3 A4 ZN VDD VSS
.ends

* Black-box entry subcircuit for gf180mcu_fd_sc_mcu7t5v0__nand3_2 abstract view
.subckt gf180mcu_fd_sc_mcu7t5v0__nand3_2 A1 A2 A3 ZN VDD VSS
.ends

* Black-box entry subcircuit for gf180mcu_fd_sc_mcu7t5v0__dlyc_1 abstract view
.subckt gf180mcu_fd_sc_mcu7t5v0__dlyc_1 I Z VDD VSS
.ends

* Black-box entry subcircuit for gf180mcu_fd_sc_mcu7t5v0__dlyb_1 abstract view
.subckt gf180mcu_fd_sc_mcu7t5v0__dlyb_1 I Z VDD VSS
.ends

* Black-box entry subcircuit for gf180mcu_fd_sc_mcu7t5v0__oai211_1 abstract view
.subckt gf180mcu_fd_sc_mcu7t5v0__oai211_1 A1 A2 B C ZN VDD VSS
.ends

* Black-box entry subcircuit for gf180mcu_fd_sc_mcu7t5v0__or4_1 abstract view
.subckt gf180mcu_fd_sc_mcu7t5v0__or4_1 A1 A2 A3 A4 Z VDD VSS
.ends

* Black-box entry subcircuit for gf180mcu_fd_sc_mcu7t5v0__clkinv_3 abstract view
.subckt gf180mcu_fd_sc_mcu7t5v0__clkinv_3 I ZN VDD VSS
.ends

* Black-box entry subcircuit for gf180mcu_fd_sc_mcu7t5v0__nor3_1 abstract view
.subckt gf180mcu_fd_sc_mcu7t5v0__nor3_1 A1 A2 A3 ZN VDD VSS
.ends

* Black-box entry subcircuit for gf180mcu_fd_sc_mcu7t5v0__inv_1 abstract view
.subckt gf180mcu_fd_sc_mcu7t5v0__inv_1 I ZN VDD VSS
.ends

* Black-box entry subcircuit for gf180mcu_fd_sc_mcu7t5v0__oai221_1 abstract view
.subckt gf180mcu_fd_sc_mcu7t5v0__oai221_1 A1 A2 B1 B2 C ZN VDD VSS
.ends

* Black-box entry subcircuit for gf180mcu_fd_sc_mcu7t5v0__nand2_2 abstract view
.subckt gf180mcu_fd_sc_mcu7t5v0__nand2_2 A1 A2 ZN VDD VSS
.ends

.subckt collatz bs clk co[0] co[10] co[11] co[12] co[13] co[14] co[15] co[1] co[2]
+ co[3] co[4] co[5] co[6] co[7] co[8] co[9] st vdd vss x[0] x[10] x[11] x[12] x[13]
+ x[14] x[15] x[1] x[2] x[3] x[4] x[5] x[6] x[7] x[8] x[9]
XTAP_199 vdd vss gf180mcu_fd_sc_mcu7t5v0__filltie
XTAP_177 vdd vss gf180mcu_fd_sc_mcu7t5v0__filltie
XTAP_188 vdd vss gf180mcu_fd_sc_mcu7t5v0__filltie
XANTENNA__429__I _102_ vdd vss gf180mcu_fd_sc_mcu7t5v0__antenna
X_501_ _042_ _158_ vdd vss gf180mcu_fd_sc_mcu7t5v0__buf_2
X_432_ _040_ _037_ _105_ vdd vss gf180mcu_fd_sc_mcu7t5v0__nand2_1
XFILLER_13_133 vdd vss gf180mcu_fd_sc_mcu7t5v0__fill_2
X_363_ _047_ Datapath.i\[5\] _049_ vdd vss gf180mcu_fd_sc_mcu7t5v0__and2_1
XFILLER_13_144 vdd vss gf180mcu_fd_sc_mcu7t5v0__fill_2
XFILLER_5_365 vdd vss gf180mcu_fd_sc_mcu7t5v0__fill_1
XFILLER_36_247 vdd vss gf180mcu_fd_sc_mcu7t5v0__fill_1
XANTENNA__568__A1 _175_ vdd vss gf180mcu_fd_sc_mcu7t5v0__antenna
XFILLER_8_192 vdd vss gf180mcu_fd_sc_mcu7t5v0__fillcap_4
XFILLER_27_258 vdd vss gf180mcu_fd_sc_mcu7t5v0__fill_2
XFILLER_27_247 vdd vss gf180mcu_fd_sc_mcu7t5v0__fillcap_8
XANTENNA__559__A1 _094_ vdd vss gf180mcu_fd_sc_mcu7t5v0__antenna
XFILLER_12_43 vdd vss gf180mcu_fd_sc_mcu7t5v0__fill_2
XFILLER_2_357 vdd vss gf180mcu_fd_sc_mcu7t5v0__fill_2
XFILLER_12_98 vdd vss gf180mcu_fd_sc_mcu7t5v0__fill_2
XFILLER_37_73 vdd vss gf180mcu_fd_sc_mcu7t5v0__fillcap_64
XFILLER_18_247 vdd vss gf180mcu_fd_sc_mcu7t5v0__fill_1
XFILLER_41_283 vdd vss gf180mcu_fd_sc_mcu7t5v0__fill_1
XFILLER_26_291 vdd vss gf180mcu_fd_sc_mcu7t5v0__fill_2
X_346_ _037_ _038_ vdd vss gf180mcu_fd_sc_mcu7t5v0__inv_2
X_415_ Datapath.k\[14\] _089_ vdd vss gf180mcu_fd_sc_mcu7t5v0__clkinv_1
XFILLER_5_140 vdd vss gf180mcu_fd_sc_mcu7t5v0__fill_2
XFILLER_17_280 vdd vss gf180mcu_fd_sc_mcu7t5v0__fillcap_4
XFILLER_32_250 vdd vss gf180mcu_fd_sc_mcu7t5v0__fillcap_64
XFILLER_23_283 vdd vss gf180mcu_fd_sc_mcu7t5v0__fill_1
XFILLER_15_206 vdd vss gf180mcu_fd_sc_mcu7t5v0__fill_2
XFILLER_2_176 vdd vss gf180mcu_fd_sc_mcu7t5v0__fill_1
XFILLER_2_143 vdd vss gf180mcu_fd_sc_mcu7t5v0__fill_2
XFILLER_46_353 vdd vss gf180mcu_fd_sc_mcu7t5v0__fillcap_8
XFILLER_9_33 vdd vss gf180mcu_fd_sc_mcu7t5v0__fill_2
XFILLER_9_66 vdd vss gf180mcu_fd_sc_mcu7t5v0__fill_2
XFILLER_14_250 vdd vss gf180mcu_fd_sc_mcu7t5v0__fill_1
XFILLER_14_283 vdd vss gf180mcu_fd_sc_mcu7t5v0__fill_2
XFILLER_43_2 vdd vss gf180mcu_fd_sc_mcu7t5v0__fillcap_64
XFILLER_20_286 vdd vss gf180mcu_fd_sc_mcu7t5v0__fill_2
XFILLER_20_264 vdd vss gf180mcu_fd_sc_mcu7t5v0__fill_2
XFILLER_20_253 vdd vss gf180mcu_fd_sc_mcu7t5v0__fill_2
XFILLER_47_139 vdd vss gf180mcu_fd_sc_mcu7t5v0__fill_1
XFILLER_28_353 vdd vss gf180mcu_fd_sc_mcu7t5v0__fillcap_8
X_680_ _315_ _311_ _320_ vdd vss gf180mcu_fd_sc_mcu7t5v0__nand2_1
XFILLER_7_257 vdd vss gf180mcu_fd_sc_mcu7t5v0__fillcap_4
XFILLER_11_286 vdd vss gf180mcu_fd_sc_mcu7t5v0__fill_1
XFILLER_46_172 vdd vss gf180mcu_fd_sc_mcu7t5v0__fillcap_4
XFILLER_19_342 vdd vss gf180mcu_fd_sc_mcu7t5v0__fill_2
XANTENNA__392__A2 _062_ vdd vss gf180mcu_fd_sc_mcu7t5v0__antenna
XFILLER_25_301 vdd vss gf180mcu_fd_sc_mcu7t5v0__fill_2
XANTENNA__717__CLK clknet_2_0__leaf_clk vdd vss gf180mcu_fd_sc_mcu7t5v0__antenna
X_732_ _025_ clknet_2_2__leaf_clk Datapath.k\[9\] vdd vss gf180mcu_fd_sc_mcu7t5v0__dffq_1
XFILLER_45_73 vdd vss gf180mcu_fd_sc_mcu7t5v0__fillcap_64
XFILLER_28_172 vdd vss gf180mcu_fd_sc_mcu7t5v0__fillcap_4
X_594_ _080_ _075_ _241_ vdd vss gf180mcu_fd_sc_mcu7t5v0__nand2_1
X_663_ _222_ _303_ _304_ vdd vss gf180mcu_fd_sc_mcu7t5v0__nor2_1
XFILLER_16_356 vdd vss gf180mcu_fd_sc_mcu7t5v0__fill_2
XFILLER_6_23 vdd vss gf180mcu_fd_sc_mcu7t5v0__fill_2
XFILLER_6_34 vdd vss gf180mcu_fd_sc_mcu7t5v0__fill_1
XTAP_337 vdd vss gf180mcu_fd_sc_mcu7t5v0__filltie
XTAP_326 vdd vss gf180mcu_fd_sc_mcu7t5v0__filltie
XTAP_315 vdd vss gf180mcu_fd_sc_mcu7t5v0__filltie
XTAP_304 vdd vss gf180mcu_fd_sc_mcu7t5v0__filltie
XFILLER_3_271 vdd vss gf180mcu_fd_sc_mcu7t5v0__fill_2
XFILLER_40_101 vdd vss gf180mcu_fd_sc_mcu7t5v0__fillcap_4
XFILLER_13_326 vdd vss gf180mcu_fd_sc_mcu7t5v0__fill_1
Xoutput31 net31 x[6] vdd vss gf180mcu_fd_sc_mcu7t5v0__clkbuf_3
Xoutput20 net20 x[10] vdd vss gf180mcu_fd_sc_mcu7t5v0__clkbuf_3
X_715_ _008_ clknet_2_0__leaf_clk Datapath.i\[8\] vdd vss gf180mcu_fd_sc_mcu7t5v0__dffq_1
XANTENNA__595__A2 Datapath.k\[9\] vdd vss gf180mcu_fd_sc_mcu7t5v0__antenna
XANTENNA__347__A2 _038_ vdd vss gf180mcu_fd_sc_mcu7t5v0__antenna
X_577_ _222_ _225_ _226_ vdd vss gf180mcu_fd_sc_mcu7t5v0__nor2_1
X_646_ Datapath.k\[15\] _103_ _038_ net6 _046_ _289_ vdd vss gf180mcu_fd_sc_mcu7t5v0__aoi221_1
XFILLER_16_142 vdd vss gf180mcu_fd_sc_mcu7t5v0__fill_2
XFILLER_39_212 vdd vss gf180mcu_fd_sc_mcu7t5v0__fill_1
XANTENNA__360__I _046_ vdd vss gf180mcu_fd_sc_mcu7t5v0__antenna
XTAP_123 vdd vss gf180mcu_fd_sc_mcu7t5v0__filltie
XTAP_112 vdd vss gf180mcu_fd_sc_mcu7t5v0__filltie
XTAP_101 vdd vss gf180mcu_fd_sc_mcu7t5v0__filltie
XTAP_134 vdd vss gf180mcu_fd_sc_mcu7t5v0__filltie
XTAP_145 vdd vss gf180mcu_fd_sc_mcu7t5v0__filltie
XTAP_156 vdd vss gf180mcu_fd_sc_mcu7t5v0__filltie
XTAP_167 vdd vss gf180mcu_fd_sc_mcu7t5v0__filltie
XTAP_178 vdd vss gf180mcu_fd_sc_mcu7t5v0__filltie
XTAP_189 vdd vss gf180mcu_fd_sc_mcu7t5v0__filltie
XFILLER_22_101 vdd vss gf180mcu_fd_sc_mcu7t5v0__fillcap_4
XFILLER_10_307 vdd vss gf180mcu_fd_sc_mcu7t5v0__fill_1
XFILLER_10_318 vdd vss gf180mcu_fd_sc_mcu7t5v0__fill_1
XFILLER_7_8 vdd vss gf180mcu_fd_sc_mcu7t5v0__fill_2
XFILLER_45_215 vdd vss gf180mcu_fd_sc_mcu7t5v0__fillcap_64
X_500_ _103_ Datapath.k\[1\] _157_ vdd vss gf180mcu_fd_sc_mcu7t5v0__nand2_1
X_362_ _048_ net29 vdd vss gf180mcu_fd_sc_mcu7t5v0__clkbuf_1
XFILLER_13_101 vdd vss gf180mcu_fd_sc_mcu7t5v0__fill_2
X_431_ _074_ _104_ FSM.NS\[1\] vdd vss gf180mcu_fd_sc_mcu7t5v0__nand2_1
XFILLER_5_333 vdd vss gf180mcu_fd_sc_mcu7t5v0__fill_2
XFILLER_3_13 vdd vss gf180mcu_fd_sc_mcu7t5v0__fill_2
X_629_ _270_ _272_ _273_ vdd vss gf180mcu_fd_sc_mcu7t5v0__or2_1
XFILLER_27_215 vdd vss gf180mcu_fd_sc_mcu7t5v0__fillcap_32
XANTENNA__559__A2 _205_ vdd vss gf180mcu_fd_sc_mcu7t5v0__antenna
XFILLER_6_108 vdd vss gf180mcu_fd_sc_mcu7t5v0__fill_2
XFILLER_5_5 vdd vss gf180mcu_fd_sc_mcu7t5v0__fill_2
XFILLER_2_303 vdd vss gf180mcu_fd_sc_mcu7t5v0__fill_2
XFILLER_18_204 vdd vss gf180mcu_fd_sc_mcu7t5v0__fill_2
X_345_ FSM.CS\[1\] _037_ vdd vss gf180mcu_fd_sc_mcu7t5v0__buf_2
X_414_ Datapath.k\[15\] _088_ vdd vss gf180mcu_fd_sc_mcu7t5v0__clkinv_1
XFILLER_5_174 vdd vss gf180mcu_fd_sc_mcu7t5v0__fill_2
XFILLER_24_218 vdd vss gf180mcu_fd_sc_mcu7t5v0__fill_2
XFILLER_24_207 vdd vss gf180mcu_fd_sc_mcu7t5v0__fill_1
XFILLER_23_273 vdd vss gf180mcu_fd_sc_mcu7t5v0__fill_2
XFILLER_23_262 vdd vss gf180mcu_fd_sc_mcu7t5v0__fill_2
XFILLER_23_251 vdd vss gf180mcu_fd_sc_mcu7t5v0__fillcap_4
XFILLER_3_2 vdd vss gf180mcu_fd_sc_mcu7t5v0__fill_1
XFILLER_2_166 vdd vss gf180mcu_fd_sc_mcu7t5v0__fill_2
XFILLER_46_365 vdd vss gf180mcu_fd_sc_mcu7t5v0__fill_1
XFILLER_46_321 vdd vss gf180mcu_fd_sc_mcu7t5v0__fillcap_32
XFILLER_0_69 vdd vss gf180mcu_fd_sc_mcu7t5v0__fill_1
XFILLER_14_240 vdd vss gf180mcu_fd_sc_mcu7t5v0__fill_1
XFILLER_9_45 vdd vss gf180mcu_fd_sc_mcu7t5v0__fill_2
XFILLER_36_2 vdd vss gf180mcu_fd_sc_mcu7t5v0__fillcap_32
XFILLER_37_354 vdd vss gf180mcu_fd_sc_mcu7t5v0__fill_1
XFILLER_37_365 vdd vss gf180mcu_fd_sc_mcu7t5v0__fill_1
XFILLER_20_232 vdd vss gf180mcu_fd_sc_mcu7t5v0__fill_2
XANTENNA__698__B2 _060_ vdd vss gf180mcu_fd_sc_mcu7t5v0__antenna
XANTENNA__698__A1 _042_ vdd vss gf180mcu_fd_sc_mcu7t5v0__antenna
XFILLER_47_107 vdd vss gf180mcu_fd_sc_mcu7t5v0__fillcap_32
XANTENNA__699__B _121_ vdd vss gf180mcu_fd_sc_mcu7t5v0__antenna
XFILLER_43_357 vdd vss gf180mcu_fd_sc_mcu7t5v0__fillcap_8
XFILLER_28_365 vdd vss gf180mcu_fd_sc_mcu7t5v0__fill_1
XFILLER_28_321 vdd vss gf180mcu_fd_sc_mcu7t5v0__fillcap_32
XANTENNA__453__I _120_ vdd vss gf180mcu_fd_sc_mcu7t5v0__antenna
XANTENNA__689__A1 Datapath.k\[17\] vdd vss gf180mcu_fd_sc_mcu7t5v0__antenna
XFILLER_11_221 vdd vss gf180mcu_fd_sc_mcu7t5v0__fill_2
XFILLER_11_243 vdd vss gf180mcu_fd_sc_mcu7t5v0__fill_2
XFILLER_11_298 vdd vss gf180mcu_fd_sc_mcu7t5v0__fill_2
XFILLER_7_269 vdd vss gf180mcu_fd_sc_mcu7t5v0__fill_2
XFILLER_19_365 vdd vss gf180mcu_fd_sc_mcu7t5v0__fill_1
XFILLER_19_354 vdd vss gf180mcu_fd_sc_mcu7t5v0__fill_1
XFILLER_19_310 vdd vss gf180mcu_fd_sc_mcu7t5v0__fill_2
XFILLER_25_357 vdd vss gf180mcu_fd_sc_mcu7t5v0__fill_1
XFILLER_25_335 vdd vss gf180mcu_fd_sc_mcu7t5v0__fill_2
XFILLER_25_313 vdd vss gf180mcu_fd_sc_mcu7t5v0__fill_2
XANTENNA__540__B1 _186_ vdd vss gf180mcu_fd_sc_mcu7t5v0__antenna
X_731_ _024_ clknet_2_2__leaf_clk Datapath.k\[8\] vdd vss gf180mcu_fd_sc_mcu7t5v0__dffq_1
X_662_ _302_ _238_ _255_ _303_ vdd vss gf180mcu_fd_sc_mcu7t5v0__nand3_1
X_593_ _221_ _238_ _239_ _240_ vdd vss gf180mcu_fd_sc_mcu7t5v0__aoi21_1
XFILLER_16_346 vdd vss gf180mcu_fd_sc_mcu7t5v0__fill_2
XTAP_338 vdd vss gf180mcu_fd_sc_mcu7t5v0__filltie
XTAP_327 vdd vss gf180mcu_fd_sc_mcu7t5v0__filltie
XTAP_316 vdd vss gf180mcu_fd_sc_mcu7t5v0__filltie
XTAP_305 vdd vss gf180mcu_fd_sc_mcu7t5v0__filltie
XFILLER_3_283 vdd vss gf180mcu_fd_sc_mcu7t5v0__fill_1
XFILLER_34_176 vdd vss gf180mcu_fd_sc_mcu7t5v0__fill_1
XFILLER_22_305 vdd vss gf180mcu_fd_sc_mcu7t5v0__fill_2
XANTENNA_input11_I co[4] vdd vss gf180mcu_fd_sc_mcu7t5v0__antenna
XANTENNA__589__B1 _038_ vdd vss gf180mcu_fd_sc_mcu7t5v0__antenna
XFILLER_15_66 vdd vss gf180mcu_fd_sc_mcu7t5v0__fillcap_4
XFILLER_40_179 vdd vss gf180mcu_fd_sc_mcu7t5v0__fillcap_64
XFILLER_21_360 vdd vss gf180mcu_fd_sc_mcu7t5v0__fill_2
XFILLER_0_264 vdd vss gf180mcu_fd_sc_mcu7t5v0__fillcap_4
Xoutput32 net32 x[7] vdd vss gf180mcu_fd_sc_mcu7t5v0__clkbuf_3
Xoutput21 net21 x[11] vdd vss gf180mcu_fd_sc_mcu7t5v0__clkbuf_3
X_645_ _286_ _064_ _287_ _288_ vdd vss gf180mcu_fd_sc_mcu7t5v0__nand3_1
X_714_ _007_ clknet_2_0__leaf_clk Datapath.i\[7\] vdd vss gf180mcu_fd_sc_mcu7t5v0__dffq_1
X_576_ _223_ _224_ _225_ vdd vss gf180mcu_fd_sc_mcu7t5v0__nand2_1
XFILLER_16_154 vdd vss gf180mcu_fd_sc_mcu7t5v0__fill_1
XFILLER_16_165 vdd vss gf180mcu_fd_sc_mcu7t5v0__fillcap_4
XFILLER_16_176 vdd vss gf180mcu_fd_sc_mcu7t5v0__fill_1
XANTENNA__504__B1 _096_ vdd vss gf180mcu_fd_sc_mcu7t5v0__antenna
XANTENNA_input3_I co[11] vdd vss gf180mcu_fd_sc_mcu7t5v0__antenna
XTAP_124 vdd vss gf180mcu_fd_sc_mcu7t5v0__filltie
XTAP_113 vdd vss gf180mcu_fd_sc_mcu7t5v0__filltie
XTAP_102 vdd vss gf180mcu_fd_sc_mcu7t5v0__filltie
XTAP_135 vdd vss gf180mcu_fd_sc_mcu7t5v0__filltie
XTAP_146 vdd vss gf180mcu_fd_sc_mcu7t5v0__filltie
XTAP_157 vdd vss gf180mcu_fd_sc_mcu7t5v0__filltie
XTAP_168 vdd vss gf180mcu_fd_sc_mcu7t5v0__filltie
XTAP_179 vdd vss gf180mcu_fd_sc_mcu7t5v0__filltie
XFILLER_39_279 vdd vss gf180mcu_fd_sc_mcu7t5v0__fillcap_4
XANTENNA__707__CLK clknet_2_0__leaf_clk vdd vss gf180mcu_fd_sc_mcu7t5v0__antenna
XFILLER_22_179 vdd vss gf180mcu_fd_sc_mcu7t5v0__fillcap_8
XANTENNA__510__A3 _162_ vdd vss gf180mcu_fd_sc_mcu7t5v0__antenna
X_361_ _047_ Datapath.i\[4\] _048_ vdd vss gf180mcu_fd_sc_mcu7t5v0__and2_1
X_430_ _092_ _101_ _103_ _104_ vdd vss gf180mcu_fd_sc_mcu7t5v0__oai21_1
XFILLER_13_113 vdd vss gf180mcu_fd_sc_mcu7t5v0__fill_2
XFILLER_21_190 vdd vss gf180mcu_fd_sc_mcu7t5v0__fill_2
XFILLER_3_25 vdd vss gf180mcu_fd_sc_mcu7t5v0__fill_2
X_628_ _100_ _271_ _272_ vdd vss gf180mcu_fd_sc_mcu7t5v0__nand2_1
X_559_ _094_ _205_ _209_ vdd vss gf180mcu_fd_sc_mcu7t5v0__nand2_1
XANTENNA__371__I Datapath.i\[9\] vdd vss gf180mcu_fd_sc_mcu7t5v0__antenna
XFILLER_10_105 vdd vss gf180mcu_fd_sc_mcu7t5v0__fill_1
XFILLER_10_116 vdd vss gf180mcu_fd_sc_mcu7t5v0__fill_2
XFILLER_12_34 vdd vss gf180mcu_fd_sc_mcu7t5v0__fill_1
XFILLER_2_315 vdd vss gf180mcu_fd_sc_mcu7t5v0__fillcap_4
XFILLER_33_208 vdd vss gf180mcu_fd_sc_mcu7t5v0__fillcap_4
XFILLER_26_271 vdd vss gf180mcu_fd_sc_mcu7t5v0__fill_2
X_413_ Datapath.k\[5\] Datapath.k\[4\] _087_ vdd vss gf180mcu_fd_sc_mcu7t5v0__nor2_1
X_344_ FSM.CS\[0\] _036_ vdd vss gf180mcu_fd_sc_mcu7t5v0__clkinv_2
XANTENNA__477__A2 Datapath.i\[10\] vdd vss gf180mcu_fd_sc_mcu7t5v0__antenna
XFILLER_2_101 vdd vss gf180mcu_fd_sc_mcu7t5v0__fill_2
XFILLER_2_112 vdd vss gf180mcu_fd_sc_mcu7t5v0__fill_2
XANTENNA__468__A2 _129_ vdd vss gf180mcu_fd_sc_mcu7t5v0__antenna
XFILLER_0_37 vdd vss gf180mcu_fd_sc_mcu7t5v0__fill_2
XFILLER_9_13 vdd vss gf180mcu_fd_sc_mcu7t5v0__fill_2
XFILLER_14_263 vdd vss gf180mcu_fd_sc_mcu7t5v0__fill_2
XFILLER_9_79 vdd vss gf180mcu_fd_sc_mcu7t5v0__fillcap_4
XFILLER_14_296 vdd vss gf180mcu_fd_sc_mcu7t5v0__fill_2
XFILLER_29_2 vdd vss gf180mcu_fd_sc_mcu7t5v0__fillcap_64
XANTENNA__395__A1 _067_ vdd vss gf180mcu_fd_sc_mcu7t5v0__antenna
XFILLER_20_299 vdd vss gf180mcu_fd_sc_mcu7t5v0__fill_2
XANTENNA__386__A1 _038_ vdd vss gf180mcu_fd_sc_mcu7t5v0__antenna
XANTENNA__622__A2 _064_ vdd vss gf180mcu_fd_sc_mcu7t5v0__antenna
XANTENNA__689__A2 Datapath.k\[15\] vdd vss gf180mcu_fd_sc_mcu7t5v0__antenna
XFILLER_7_215 vdd vss gf180mcu_fd_sc_mcu7t5v0__fill_1
XFILLER_38_108 vdd vss gf180mcu_fd_sc_mcu7t5v0__fillcap_64
XFILLER_34_314 vdd vss gf180mcu_fd_sc_mcu7t5v0__fillcap_4
XFILLER_19_322 vdd vss gf180mcu_fd_sc_mcu7t5v0__fill_2
XANTENNA__740__CLK clknet_2_3__leaf_clk vdd vss gf180mcu_fd_sc_mcu7t5v0__antenna
XFILLER_37_141 vdd vss gf180mcu_fd_sc_mcu7t5v0__fill_1
XFILLER_25_325 vdd vss gf180mcu_fd_sc_mcu7t5v0__fillcap_4
XANTENNA__368__A1 net18 vdd vss gf180mcu_fd_sc_mcu7t5v0__antenna
XANTENNA__540__B2 _158_ vdd vss gf180mcu_fd_sc_mcu7t5v0__antenna
XFILLER_20_34 vdd vss gf180mcu_fd_sc_mcu7t5v0__fill_1
X_730_ _023_ clknet_2_2__leaf_clk Datapath.k\[7\] vdd vss gf180mcu_fd_sc_mcu7t5v0__dffq_1
X_592_ _224_ _232_ _239_ vdd vss gf180mcu_fd_sc_mcu7t5v0__nand2_1
X_661_ _301_ _302_ vdd vss gf180mcu_fd_sc_mcu7t5v0__clkinv_2
XFILLER_43_144 vdd vss gf180mcu_fd_sc_mcu7t5v0__fillcap_64
XFILLER_6_58 vdd vss gf180mcu_fd_sc_mcu7t5v0__fill_2
XTAP_339 vdd vss gf180mcu_fd_sc_mcu7t5v0__filltie
XTAP_328 vdd vss gf180mcu_fd_sc_mcu7t5v0__filltie
XTAP_317 vdd vss gf180mcu_fd_sc_mcu7t5v0__filltie
XTAP_306 vdd vss gf180mcu_fd_sc_mcu7t5v0__filltie
XFILLER_19_141 vdd vss gf180mcu_fd_sc_mcu7t5v0__fill_1
XFILLER_30_361 vdd vss gf180mcu_fd_sc_mcu7t5v0__fillcap_4
XFILLER_22_328 vdd vss gf180mcu_fd_sc_mcu7t5v0__fill_2
XFILLER_22_317 vdd vss gf180mcu_fd_sc_mcu7t5v0__fill_2
XANTENNA__522__A1 _165_ vdd vss gf180mcu_fd_sc_mcu7t5v0__antenna
XFILLER_25_144 vdd vss gf180mcu_fd_sc_mcu7t5v0__fillcap_64
XFILLER_13_306 vdd vss gf180mcu_fd_sc_mcu7t5v0__fill_1
XFILLER_15_89 vdd vss gf180mcu_fd_sc_mcu7t5v0__fill_2
XFILLER_31_66 vdd vss gf180mcu_fd_sc_mcu7t5v0__fillcap_4
XANTENNA__513__A1 _165_ vdd vss gf180mcu_fd_sc_mcu7t5v0__antenna
XFILLER_21_350 vdd vss gf180mcu_fd_sc_mcu7t5v0__fill_2
Xoutput22 net22 x[12] vdd vss gf180mcu_fd_sc_mcu7t5v0__clkbuf_3
Xoutput33 net33 x[8] vdd vss gf180mcu_fd_sc_mcu7t5v0__clkbuf_3
X_713_ _006_ clknet_2_1__leaf_clk Datapath.i\[6\] vdd vss gf180mcu_fd_sc_mcu7t5v0__dffq_1
XFILLER_16_122 vdd vss gf180mcu_fd_sc_mcu7t5v0__fill_2
X_644_ _278_ _280_ _284_ _287_ vdd vss gf180mcu_fd_sc_mcu7t5v0__nand3_1
X_575_ Datapath.k\[8\] Datapath.k\[7\] _224_ vdd vss gf180mcu_fd_sc_mcu7t5v0__nand2_1
XFILLER_8_321 vdd vss gf180mcu_fd_sc_mcu7t5v0__fill_1
XFILLER_16_188 vdd vss gf180mcu_fd_sc_mcu7t5v0__fill_2
XANTENNA__504__A1 _060_ vdd vss gf180mcu_fd_sc_mcu7t5v0__antenna
XTAP_114 vdd vss gf180mcu_fd_sc_mcu7t5v0__filltie
XTAP_103 vdd vss gf180mcu_fd_sc_mcu7t5v0__filltie
XTAP_125 vdd vss gf180mcu_fd_sc_mcu7t5v0__filltie
XTAP_136 vdd vss gf180mcu_fd_sc_mcu7t5v0__filltie
XANTENNA__369__I Datapath.i\[8\] vdd vss gf180mcu_fd_sc_mcu7t5v0__antenna
XTAP_147 vdd vss gf180mcu_fd_sc_mcu7t5v0__filltie
XFILLER_11_2 vdd vss gf180mcu_fd_sc_mcu7t5v0__fillcap_16
XTAP_158 vdd vss gf180mcu_fd_sc_mcu7t5v0__filltie
XTAP_169 vdd vss gf180mcu_fd_sc_mcu7t5v0__filltie
X_360_ _046_ _047_ vdd vss gf180mcu_fd_sc_mcu7t5v0__buf_2
XFILLER_13_125 vdd vss gf180mcu_fd_sc_mcu7t5v0__fill_2
XFILLER_5_324 vdd vss gf180mcu_fd_sc_mcu7t5v0__fill_2
XFILLER_5_357 vdd vss gf180mcu_fd_sc_mcu7t5v0__fill_1
XFILLER_44_250 vdd vss gf180mcu_fd_sc_mcu7t5v0__fillcap_64
X_558_ _204_ _207_ _208_ vdd vss gf180mcu_fd_sc_mcu7t5v0__nand2_1
X_627_ Datapath.k\[13\] Datapath.k\[12\] _271_ vdd vss gf180mcu_fd_sc_mcu7t5v0__nand2_1
X_489_ _141_ Datapath.i\[13\] Datapath.i\[12\] Datapath.i\[11\] _149_ vdd vss gf180mcu_fd_sc_mcu7t5v0__nand4_2
XFILLER_35_283 vdd vss gf180mcu_fd_sc_mcu7t5v0__fill_1
XFILLER_18_206 vdd vss gf180mcu_fd_sc_mcu7t5v0__fill_1
XFILLER_26_283 vdd vss gf180mcu_fd_sc_mcu7t5v0__fill_2
XFILLER_26_261 vdd vss gf180mcu_fd_sc_mcu7t5v0__fillcap_4
XFILLER_26_250 vdd vss gf180mcu_fd_sc_mcu7t5v0__fill_1
X_412_ Datapath.k\[0\] _086_ vdd vss gf180mcu_fd_sc_mcu7t5v0__clkinv_1
XFILLER_41_286 vdd vss gf180mcu_fd_sc_mcu7t5v0__fillcap_64
XFILLER_23_231 vdd vss gf180mcu_fd_sc_mcu7t5v0__fill_2
XFILLER_23_220 vdd vss gf180mcu_fd_sc_mcu7t5v0__fill_1
XFILLER_23_297 vdd vss gf180mcu_fd_sc_mcu7t5v0__fill_2
XFILLER_23_286 vdd vss gf180mcu_fd_sc_mcu7t5v0__fill_1
XFILLER_2_179 vdd vss gf180mcu_fd_sc_mcu7t5v0__fill_1
XANTENNA_clkbuf_2_2__f_clk_I clknet_0_clk vdd vss gf180mcu_fd_sc_mcu7t5v0__antenna
XFILLER_9_25 vdd vss gf180mcu_fd_sc_mcu7t5v0__fill_2
XANTENNA__631__A3 _036_ vdd vss gf180mcu_fd_sc_mcu7t5v0__antenna
XFILLER_20_278 vdd vss gf180mcu_fd_sc_mcu7t5v0__fill_2
XFILLER_20_245 vdd vss gf180mcu_fd_sc_mcu7t5v0__fill_2
XFILLER_20_234 vdd vss gf180mcu_fd_sc_mcu7t5v0__fill_1
XFILLER_20_201 vdd vss gf180mcu_fd_sc_mcu7t5v0__fill_2
XANTENNA__395__A2 _068_ vdd vss gf180mcu_fd_sc_mcu7t5v0__antenna
XFILLER_18_34 vdd vss gf180mcu_fd_sc_mcu7t5v0__fill_1
XANTENNA__386__A2 _060_ vdd vss gf180mcu_fd_sc_mcu7t5v0__antenna
XFILLER_11_212 vdd vss gf180mcu_fd_sc_mcu7t5v0__fill_1
XFILLER_11_223 vdd vss gf180mcu_fd_sc_mcu7t5v0__fill_1
XFILLER_7_249 vdd vss gf180mcu_fd_sc_mcu7t5v0__fill_2
XFILLER_11_256 vdd vss gf180mcu_fd_sc_mcu7t5v0__fill_2
XFILLER_19_334 vdd vss gf180mcu_fd_sc_mcu7t5v0__fill_2
XFILLER_41_2 vdd vss gf180mcu_fd_sc_mcu7t5v0__fillcap_64
XFILLER_40_318 vdd vss gf180mcu_fd_sc_mcu7t5v0__fill_1
XFILLER_25_348 vdd vss gf180mcu_fd_sc_mcu7t5v0__fill_2
XFILLER_25_337 vdd vss gf180mcu_fd_sc_mcu7t5v0__fill_1
XFILLER_1_70 vdd vss gf180mcu_fd_sc_mcu7t5v0__fill_1
XANTENNA__368__A2 _051_ vdd vss gf180mcu_fd_sc_mcu7t5v0__antenna
XFILLER_29_66 vdd vss gf180mcu_fd_sc_mcu7t5v0__fillcap_4
X_591_ _225_ _233_ _238_ vdd vss gf180mcu_fd_sc_mcu7t5v0__nor2_1
X_660_ _277_ _300_ _301_ vdd vss gf180mcu_fd_sc_mcu7t5v0__nand2_1
XFILLER_6_15 vdd vss gf180mcu_fd_sc_mcu7t5v0__fill_2
XFILLER_6_37 vdd vss gf180mcu_fd_sc_mcu7t5v0__fill_1
XTAP_329 vdd vss gf180mcu_fd_sc_mcu7t5v0__filltie
XTAP_318 vdd vss gf180mcu_fd_sc_mcu7t5v0__filltie
XTAP_307 vdd vss gf180mcu_fd_sc_mcu7t5v0__filltie
XFILLER_34_101 vdd vss gf180mcu_fd_sc_mcu7t5v0__fillcap_4
XFILLER_19_164 vdd vss gf180mcu_fd_sc_mcu7t5v0__fill_2
XANTENNA__390__I Datapath.k\[1\] vdd vss gf180mcu_fd_sc_mcu7t5v0__antenna
XANTENNA__522__A2 _170_ vdd vss gf180mcu_fd_sc_mcu7t5v0__antenna
XANTENNA__589__A2 _103_ vdd vss gf180mcu_fd_sc_mcu7t5v0__antenna
XANTENNA__513__A2 _162_ vdd vss gf180mcu_fd_sc_mcu7t5v0__antenna
Xoutput34 net34 x[9] vdd vss gf180mcu_fd_sc_mcu7t5v0__clkbuf_3
Xoutput23 net23 x[13] vdd vss gf180mcu_fd_sc_mcu7t5v0__clkbuf_3
XANTENNA__730__CLK clknet_2_2__leaf_clk vdd vss gf180mcu_fd_sc_mcu7t5v0__antenna
XFILLER_0_299 vdd vss gf180mcu_fd_sc_mcu7t5v0__fill_2
XFILLER_0_244 vdd vss gf180mcu_fd_sc_mcu7t5v0__fill_1
X_712_ _005_ clknet_2_1__leaf_clk Datapath.i\[5\] vdd vss gf180mcu_fd_sc_mcu7t5v0__dffq_1
X_643_ _281_ _285_ _286_ vdd vss gf180mcu_fd_sc_mcu7t5v0__nand2_1
X_574_ _076_ _213_ _223_ vdd vss gf180mcu_fd_sc_mcu7t5v0__nand2_1
XFILLER_16_101 vdd vss gf180mcu_fd_sc_mcu7t5v0__fillcap_4
XFILLER_16_134 vdd vss gf180mcu_fd_sc_mcu7t5v0__fill_2
XFILLER_31_137 vdd vss gf180mcu_fd_sc_mcu7t5v0__fillcap_4
XFILLER_8_355 vdd vss gf180mcu_fd_sc_mcu7t5v0__fill_2
XFILLER_12_340 vdd vss gf180mcu_fd_sc_mcu7t5v0__fill_2
XTAP_115 vdd vss gf180mcu_fd_sc_mcu7t5v0__filltie
XTAP_104 vdd vss gf180mcu_fd_sc_mcu7t5v0__filltie
XTAP_126 vdd vss gf180mcu_fd_sc_mcu7t5v0__filltie
XTAP_137 vdd vss gf180mcu_fd_sc_mcu7t5v0__filltie
XANTENNA__504__A2 _065_ vdd vss gf180mcu_fd_sc_mcu7t5v0__antenna
XTAP_148 vdd vss gf180mcu_fd_sc_mcu7t5v0__filltie
XFILLER_39_215 vdd vss gf180mcu_fd_sc_mcu7t5v0__fillcap_64
XTAP_159 vdd vss gf180mcu_fd_sc_mcu7t5v0__filltie
XFILLER_7_80 vdd vss gf180mcu_fd_sc_mcu7t5v0__fill_2
XFILLER_26_34 vdd vss gf180mcu_fd_sc_mcu7t5v0__fill_1
XFILLER_13_137 vdd vss gf180mcu_fd_sc_mcu7t5v0__fill_2
XANTENNA__498__A1 _060_ vdd vss gf180mcu_fd_sc_mcu7t5v0__antenna
XANTENNA__670__A1 Datapath.k\[16\] vdd vss gf180mcu_fd_sc_mcu7t5v0__antenna
X_488_ _056_ _145_ _148_ _012_ vdd vss gf180mcu_fd_sc_mcu7t5v0__aoi21_1
X_557_ _206_ _093_ _207_ vdd vss gf180mcu_fd_sc_mcu7t5v0__nor2_1
X_626_ _261_ _262_ _269_ _270_ vdd vss gf180mcu_fd_sc_mcu7t5v0__aoi21_1
XFILLER_8_196 vdd vss gf180mcu_fd_sc_mcu7t5v0__fill_1
XANTENNA__489__A1 _141_ vdd vss gf180mcu_fd_sc_mcu7t5v0__antenna
XANTENNA__413__A1 Datapath.k\[5\] vdd vss gf180mcu_fd_sc_mcu7t5v0__antenna
XFILLER_2_339 vdd vss gf180mcu_fd_sc_mcu7t5v0__fill_2
XFILLER_12_47 vdd vss gf180mcu_fd_sc_mcu7t5v0__fillcap_4
XFILLER_37_66 vdd vss gf180mcu_fd_sc_mcu7t5v0__fillcap_4
XFILLER_18_229 vdd vss gf180mcu_fd_sc_mcu7t5v0__fill_2
XFILLER_26_295 vdd vss gf180mcu_fd_sc_mcu7t5v0__fillcap_4
X_411_ _077_ _078_ _081_ _084_ _085_ vdd vss gf180mcu_fd_sc_mcu7t5v0__nor4_1
XFILLER_5_144 vdd vss gf180mcu_fd_sc_mcu7t5v0__fill_1
X_609_ _253_ _254_ _079_ _047_ _027_ vdd vss gf180mcu_fd_sc_mcu7t5v0__aoi22_1
XFILLER_17_273 vdd vss gf180mcu_fd_sc_mcu7t5v0__fill_2
XFILLER_32_243 vdd vss gf180mcu_fd_sc_mcu7t5v0__fillcap_4
XFILLER_23_243 vdd vss gf180mcu_fd_sc_mcu7t5v0__fill_2
XFILLER_3_5 vdd vss gf180mcu_fd_sc_mcu7t5v0__fill_2
XFILLER_9_37 vdd vss gf180mcu_fd_sc_mcu7t5v0__fill_2
XFILLER_9_59 vdd vss gf180mcu_fd_sc_mcu7t5v0__fill_2
XFILLER_14_221 vdd vss gf180mcu_fd_sc_mcu7t5v0__fill_2
XFILLER_37_357 vdd vss gf180mcu_fd_sc_mcu7t5v0__fillcap_8
XFILLER_20_268 vdd vss gf180mcu_fd_sc_mcu7t5v0__fill_2
XFILLER_20_257 vdd vss gf180mcu_fd_sc_mcu7t5v0__fillcap_4
XFILLER_20_224 vdd vss gf180mcu_fd_sc_mcu7t5v0__fill_2
XFILLER_34_34 vdd vss gf180mcu_fd_sc_mcu7t5v0__fill_1
XFILLER_7_239 vdd vss gf180mcu_fd_sc_mcu7t5v0__fill_2
XFILLER_11_279 vdd vss gf180mcu_fd_sc_mcu7t5v0__fill_2
XFILLER_19_302 vdd vss gf180mcu_fd_sc_mcu7t5v0__fill_2
XFILLER_1_2 vdd vss gf180mcu_fd_sc_mcu7t5v0__fill_1
XFILLER_46_176 vdd vss gf180mcu_fd_sc_mcu7t5v0__fill_1
XFILLER_19_357 vdd vss gf180mcu_fd_sc_mcu7t5v0__fillcap_4
XFILLER_19_346 vdd vss gf180mcu_fd_sc_mcu7t5v0__fill_2
XFILLER_34_2 vdd vss gf180mcu_fd_sc_mcu7t5v0__fillcap_32
XFILLER_6_250 vdd vss gf180mcu_fd_sc_mcu7t5v0__fill_1
XFILLER_25_305 vdd vss gf180mcu_fd_sc_mcu7t5v0__fill_2
XFILLER_45_66 vdd vss gf180mcu_fd_sc_mcu7t5v0__fillcap_4
XFILLER_28_176 vdd vss gf180mcu_fd_sc_mcu7t5v0__fill_1
X_590_ _236_ _237_ _075_ _158_ _025_ vdd vss gf180mcu_fd_sc_mcu7t5v0__aoi22_1
XFILLER_16_316 vdd vss gf180mcu_fd_sc_mcu7t5v0__fill_2
XFILLER_16_338 vdd vss gf180mcu_fd_sc_mcu7t5v0__fill_2
XTAP_319 vdd vss gf180mcu_fd_sc_mcu7t5v0__filltie
XTAP_308 vdd vss gf180mcu_fd_sc_mcu7t5v0__filltie
XFILLER_3_286 vdd vss gf180mcu_fd_sc_mcu7t5v0__fill_1
XFILLER_3_231 vdd vss gf180mcu_fd_sc_mcu7t5v0__fill_2
XFILLER_6_27 vdd vss gf180mcu_fd_sc_mcu7t5v0__fill_2
XFILLER_34_179 vdd vss gf180mcu_fd_sc_mcu7t5v0__fillcap_64
XFILLER_40_105 vdd vss gf180mcu_fd_sc_mcu7t5v0__fill_1
XFILLER_21_341 vdd vss gf180mcu_fd_sc_mcu7t5v0__fill_2
Xoutput24 net24 x[14] vdd vss gf180mcu_fd_sc_mcu7t5v0__clkbuf_3
XFILLER_0_212 vdd vss gf180mcu_fd_sc_mcu7t5v0__fill_1
X_642_ _284_ _285_ vdd vss gf180mcu_fd_sc_mcu7t5v0__clkinv_1
X_711_ _004_ clknet_2_1__leaf_clk Datapath.i\[4\] vdd vss gf180mcu_fd_sc_mcu7t5v0__dffq_1
X_573_ _221_ _222_ vdd vss gf180mcu_fd_sc_mcu7t5v0__clkinv_2
XFILLER_16_146 vdd vss gf180mcu_fd_sc_mcu7t5v0__fill_2
XFILLER_16_157 vdd vss gf180mcu_fd_sc_mcu7t5v0__fill_2
XFILLER_16_179 vdd vss gf180mcu_fd_sc_mcu7t5v0__fill_1
XFILLER_8_312 vdd vss gf180mcu_fd_sc_mcu7t5v0__fill_2
XFILLER_12_363 vdd vss gf180mcu_fd_sc_mcu7t5v0__fill_2
XTAP_116 vdd vss gf180mcu_fd_sc_mcu7t5v0__filltie
XTAP_105 vdd vss gf180mcu_fd_sc_mcu7t5v0__filltie
XTAP_127 vdd vss gf180mcu_fd_sc_mcu7t5v0__filltie
XTAP_138 vdd vss gf180mcu_fd_sc_mcu7t5v0__filltie
XTAP_149 vdd vss gf180mcu_fd_sc_mcu7t5v0__filltie
XFILLER_47_282 vdd vss gf180mcu_fd_sc_mcu7t5v0__fillcap_32
XFILLER_22_105 vdd vss gf180mcu_fd_sc_mcu7t5v0__fill_1