*SPEF "ieee 1481-1999"
*DESIGN "collatz"
*DATE "11:11:11 Fri 11 11, 1111"
*VENDOR "OpenRCX"
*PROGRAM "Parallel Extraction"
*VERSION "1.0"
*DESIGN_FLOW "NAME_SCOPE LOCAL" "PIN_CAP NONE"
*DIVIDER /
*DELIMITER :
*BUS_DELIMITER []
*T_UNIT 1 NS
*C_UNIT 1 PF
*R_UNIT 1 OHM
*L_UNIT 1 HENRY

*NAME_MAP
*1 bs
*2 clk
*3 co[0]
*4 co[10]
*5 co[11]
*6 co[12]
*7 co[13]
*8 co[14]
*9 co[15]
*10 co[1]
*11 co[2]
*12 co[3]
*13 co[4]
*14 co[5]
*15 co[6]
*16 co[7]
*17 co[8]
*18 co[9]
*19 st
*22 x[0]
*23 x[10]
*24 x[11]
*25 x[12]
*26 x[13]
*27 x[14]
*28 x[15]
*29 x[1]
*30 x[2]
*31 x[3]
*32 x[4]
*33 x[5]
*34 x[6]
*35 x[7]
*36 x[8]
*37 x[9]
*38 Datapath\.i\[0\]
*39 Datapath\.i\[10\]
*40 Datapath\.i\[11\]
*41 Datapath\.i\[12\]
*42 Datapath\.i\[13\]
*43 Datapath\.i\[14\]
*44 Datapath\.i\[15\]
*45 Datapath\.i\[1\]
*46 Datapath\.i\[2\]
*47 Datapath\.i\[3\]
*48 Datapath\.i\[4\]
*49 Datapath\.i\[5\]
*50 Datapath\.i\[6\]
*51 Datapath\.i\[7\]
*52 Datapath\.i\[8\]
*53 Datapath\.i\[9\]
*54 Datapath\.k\[0\]
*55 Datapath\.k\[10\]
*56 Datapath\.k\[11\]
*57 Datapath\.k\[12\]
*58 Datapath\.k\[13\]
*59 Datapath\.k\[14\]
*60 Datapath\.k\[15\]
*61 Datapath\.k\[16\]
*62 Datapath\.k\[17\]
*63 Datapath\.k\[18\]
*64 Datapath\.k\[19\]
*65 Datapath\.k\[1\]
*66 Datapath\.k\[2\]
*67 Datapath\.k\[3\]
*68 Datapath\.k\[4\]
*69 Datapath\.k\[5\]
*70 Datapath\.k\[6\]
*71 Datapath\.k\[7\]
*72 Datapath\.k\[8\]
*73 Datapath\.k\[9\]
*74 FSM\.CS\[0\]
*75 FSM\.CS\[1\]
*76 FSM\.NS\[0\]
*77 FSM\.NS\[1\]
*78 _000_
*79 _001_
*80 _002_
*81 _003_
*82 _004_
*83 _005_
*84 _006_
*85 _007_
*86 _008_
*87 _009_
*88 _010_
*89 _011_
*90 _012_
*91 _013_
*92 _014_
*93 _015_
*94 _016_
*95 _017_
*96 _018_
*97 _019_
*98 _020_
*99 _021_
*100 _022_
*101 _023_
*102 _024_
*103 _025_
*104 _026_
*105 _027_
*106 _028_
*107 _029_
*108 _030_
*109 _031_
*110 _032_
*111 _033_
*112 _034_
*113 _035_
*114 _036_
*115 _037_
*116 _038_
*117 _039_
*118 _040_
*119 _041_
*120 _042_
*121 _043_
*122 _044_
*123 _045_
*124 _046_
*125 _047_
*126 _048_
*127 _049_
*128 _050_
*129 _051_
*130 _052_
*131 _053_
*132 _054_
*133 _055_
*134 _056_
*135 _057_
*136 _058_
*137 _059_
*138 _060_
*139 _061_
*140 _062_
*141 _063_
*142 _064_
*143 _065_
*144 _066_
*145 _067_
*146 _068_
*147 _069_
*148 _070_
*149 _071_
*150 _072_
*151 _073_
*152 _074_
*153 _075_
*154 _076_
*155 _077_
*156 _078_
*157 _079_
*158 _080_
*159 _081_
*160 _082_
*161 _083_
*162 _084_
*163 _085_
*164 _086_
*165 _087_
*166 _088_
*167 _089_
*168 _090_
*169 _091_
*170 _092_
*171 _093_
*172 _094_
*173 _095_
*174 _096_
*175 _097_
*176 _098_
*177 _099_
*178 _100_
*179 _101_
*180 _102_
*181 _103_
*182 _104_
*183 _105_
*184 _106_
*185 _107_
*186 _108_
*187 _109_
*188 _110_
*189 _111_
*190 _112_
*191 _113_
*192 _114_
*193 _115_
*194 _116_
*195 _117_
*196 _118_
*197 _119_
*198 _120_
*199 _121_
*200 _122_
*201 _123_
*202 _124_
*203 _125_
*204 _126_
*205 _127_
*206 _128_
*207 _129_
*208 _130_
*209 _131_
*210 _132_
*211 _133_
*212 _134_
*213 _135_
*214 _136_
*215 _137_
*216 _138_
*217 _139_
*218 _140_
*219 _141_
*220 _142_
*221 _143_
*222 _144_
*223 _145_
*224 _146_
*225 _147_
*226 _148_
*227 _149_
*228 _150_
*229 _151_
*230 _152_
*231 _153_
*232 _154_
*233 _155_
*234 _156_
*235 _157_
*236 _158_
*237 _159_
*238 _160_
*239 _161_
*240 _162_
*241 _163_
*242 _164_
*243 _165_
*244 _166_
*245 _167_
*246 _168_
*247 _169_
*248 _170_
*249 _171_
*250 _172_
*251 _173_
*252 _174_
*253 _175_
*254 _176_
*255 _177_
*256 _178_
*257 _179_
*258 _180_
*259 _181_
*260 _182_
*261 _183_
*262 _184_
*263 _185_
*264 _186_
*265 _187_
*266 _188_
*267 _189_
*268 _190_
*269 _191_
*270 _192_
*271 _193_
*272 _194_
*273 _195_
*274 _196_
*275 _197_
*276 _198_
*277 _199_
*278 _200_
*279 _201_
*280 _202_
*281 _203_
*282 _204_
*283 _205_
*284 _206_
*285 _207_
*286 _208_
*287 _209_
*288 _210_
*289 _211_
*290 _212_
*291 _213_
*292 _214_
*293 _215_
*294 _216_
*295 _217_
*296 _218_
*297 _219_
*298 _220_
*299 _221_
*300 _222_
*301 _223_
*302 _224_
*303 _225_
*304 _226_
*305 _227_
*306 _228_
*307 _229_
*308 _230_
*309 _231_
*310 _232_
*311 _233_
*312 _234_
*313 _235_
*314 _236_
*315 _237_
*316 _238_
*317 _239_
*318 _240_
*319 _241_
*320 _242_
*321 _243_
*322 _244_
*323 _245_
*324 clknet_0_clk
*325 clknet_2_0__leaf_clk
*326 clknet_2_1__leaf_clk
*327 clknet_2_2__leaf_clk
*328 clknet_2_3__leaf_clk
*329 net1
*330 net10
*331 net11
*332 net12
*333 net13
*334 net14
*335 net15
*336 net16
*337 net17
*338 net18
*339 net19
*340 net2
*341 net20
*342 net21
*343 net22
*344 net23
*345 net24
*346 net25
*347 net26
*348 net27
*349 net28
*350 net29
*351 net3
*352 net30
*353 net31
*354 net32
*355 net33
*356 net34
*357 net4
*358 net5
*359 net6
*360 net7
*361 net8
*362 net9
*363 ANTENNA__246__I
*364 ANTENNA__247__A1
*365 ANTENNA__247__A2
*366 ANTENNA__248__I
*367 ANTENNA__249__A1
*368 ANTENNA__249__A2
*369 ANTENNA__250__I
*370 ANTENNA__251__I
*371 ANTENNA__252__A1
*372 ANTENNA__252__A2
*373 ANTENNA__254__A1
*374 ANTENNA__254__A2
*375 ANTENNA__256__A1
*376 ANTENNA__256__A2
*377 ANTENNA__258__A1
*378 ANTENNA__258__A2
*379 ANTENNA__260__A1
*380 ANTENNA__260__A2
*381 ANTENNA__262__A1
*382 ANTENNA__262__A2
*383 ANTENNA__264__A1
*384 ANTENNA__264__A2
*385 ANTENNA__266__A1
*386 ANTENNA__266__A2
*387 ANTENNA__268__A1
*388 ANTENNA__268__A2
*389 ANTENNA__270__A1
*390 ANTENNA__270__A2
*391 ANTENNA__272__A1
*392 ANTENNA__272__A2
*393 ANTENNA__274__A1
*394 ANTENNA__274__A2
*395 ANTENNA__276__A1
*396 ANTENNA__276__A2
*397 ANTENNA__278__A1
*398 ANTENNA__278__A2
*399 ANTENNA__279__I
*400 ANTENNA__280__A1
*401 ANTENNA__280__A2
*402 ANTENNA__281__I
*403 ANTENNA__282__I
*404 ANTENNA__283__A1
*405 ANTENNA__283__A2
*406 ANTENNA__284__A1
*407 ANTENNA__284__A2
*408 ANTENNA__285__I
*409 ANTENNA__286__I
*410 ANTENNA__287__A1
*411 ANTENNA__287__A2
*412 ANTENNA__288__I
*413 ANTENNA__289__I
*414 ANTENNA__290__A1
*415 ANTENNA__290__A2
*416 ANTENNA__290__B1
*417 ANTENNA__290__B2
*418 ANTENNA__291__A1
*419 ANTENNA__292__A1
*420 ANTENNA__292__A2
*421 ANTENNA__292__A3
*422 ANTENNA__292__A4
*423 ANTENNA__293__A1
*424 ANTENNA__293__A2
*425 ANTENNA__293__A3
*426 ANTENNA__293__A4
*427 ANTENNA__294__A1
*428 ANTENNA__294__A2
*429 ANTENNA__294__A3
*430 ANTENNA__294__A4
*431 ANTENNA__295__A1
*432 ANTENNA__295__A2
*433 ANTENNA__295__A3
*434 ANTENNA__295__A4
*435 ANTENNA__296__A1
*436 ANTENNA__296__A4
*437 ANTENNA__297__A1
*438 ANTENNA__297__A2
*439 ANTENNA__299__A1
*440 ANTENNA__299__A2
*441 ANTENNA__299__A3
*442 ANTENNA__299__A4
*443 ANTENNA__300__A1
*444 ANTENNA__300__A2
*445 ANTENNA__301__I
*446 ANTENNA__302__A1
*447 ANTENNA__302__A2
*448 ANTENNA__302__A3
*449 ANTENNA__302__A4
*450 ANTENNA__303__A1
*451 ANTENNA__303__A2
*452 ANTENNA__303__A3
*453 ANTENNA__304__A1
*454 ANTENNA__304__A2
*455 ANTENNA__304__A3
*456 ANTENNA__304__A4
*457 ANTENNA__305__A1
*458 ANTENNA__305__A2
*459 ANTENNA__306__A1
*460 ANTENNA__306__A2
*461 ANTENNA__306__A3
*462 ANTENNA__306__A4
*463 ANTENNA__307__A1
*464 ANTENNA__307__A2
*465 ANTENNA__307__B1
*466 ANTENNA__307__B2
*467 ANTENNA__308__I
*468 ANTENNA__309__I
*469 ANTENNA__310__A1
*470 ANTENNA__310__A2
*471 ANTENNA__310__B
*472 ANTENNA__311__A1
*473 ANTENNA__311__A2
*474 ANTENNA__311__A3
*475 ANTENNA__312__A1
*476 ANTENNA__312__A2
*477 ANTENNA__313__A1
*478 ANTENNA__313__A2
*479 ANTENNA__313__B1
*480 ANTENNA__313__B2
*481 ANTENNA__314__A1
*482 ANTENNA__315__A1
*483 ANTENNA__315__A2
*484 ANTENNA__316__A1
*485 ANTENNA__316__A2
*486 ANTENNA__316__A3
*487 ANTENNA__316__A4
*488 ANTENNA__317__A1
*489 ANTENNA__318__A1
*490 ANTENNA__319__A1
*491 ANTENNA__320__A1
*492 ANTENNA__320__A3
*493 ANTENNA__321__A1
*494 ANTENNA__321__A2
*495 ANTENNA__322__A1
*496 ANTENNA__322__A2
*497 ANTENNA__322__B
*498 ANTENNA__323__A1
*499 ANTENNA__324__A1
*500 ANTENNA__324__A2
*501 ANTENNA__324__B
*502 ANTENNA__325__A1
*503 ANTENNA__325__A2
*504 ANTENNA__326__I
*505 ANTENNA__327__A1
*506 ANTENNA__327__A2
*507 ANTENNA__327__B
*508 ANTENNA__328__A1
*509 ANTENNA__328__A2
*510 ANTENNA__328__A3
*511 ANTENNA__328__A4
*512 ANTENNA__329__A1
*513 ANTENNA__329__A3
*514 ANTENNA__330__A1
*515 ANTENNA__330__A2
*516 ANTENNA__331__A1
*517 ANTENNA__331__A2
*518 ANTENNA__332__A1
*519 ANTENNA__333__A1
*520 ANTENNA__333__A2
*521 ANTENNA__333__A3
*522 ANTENNA__334__A1
*523 ANTENNA__334__B
*524 ANTENNA__335__A1
*525 ANTENNA__335__A2
*526 ANTENNA__336__A1
*527 ANTENNA__336__A2
*528 ANTENNA__337__A1
*529 ANTENNA__337__A2
*530 ANTENNA__338__A1
*531 ANTENNA__338__A3
*532 ANTENNA__339__A1
*533 ANTENNA__339__A2
*534 ANTENNA__340__A1
*535 ANTENNA__340__A2
*536 ANTENNA__341__A1
*537 ANTENNA__341__A2
*538 ANTENNA__341__A3
*539 ANTENNA__342__A1
*540 ANTENNA__342__A2
*541 ANTENNA__342__B
*542 ANTENNA__343__A1
*543 ANTENNA__343__A2
*544 ANTENNA__343__B
*545 ANTENNA__344__I
*546 ANTENNA__345__A1
*547 ANTENNA__345__A2
*548 ANTENNA__345__B
*549 ANTENNA__346__A1
*550 ANTENNA__346__A2
*551 ANTENNA__346__A3
*552 ANTENNA__347__A1
*553 ANTENNA__347__A3
*554 ANTENNA__348__A1
*555 ANTENNA__348__A2
*556 ANTENNA__348__B
*557 ANTENNA__349__A1
*558 ANTENNA__349__A2
*559 ANTENNA__349__B
*560 ANTENNA__351__A1
*561 ANTENNA__351__A2
*562 ANTENNA__351__B
*563 ANTENNA__352__A1
*564 ANTENNA__352__A2
*565 ANTENNA__352__A3
*566 ANTENNA__353__A1
*567 ANTENNA__353__A2
*568 ANTENNA__353__A3
*569 ANTENNA__354__A1
*570 ANTENNA__354__A2
*571 ANTENNA__355__A1
*572 ANTENNA__355__A2
*573 ANTENNA__357__A1
*574 ANTENNA__357__A2
*575 ANTENNA__358__A1
*576 ANTENNA__358__A2
*577 ANTENNA__359__A1
*578 ANTENNA__359__A2
*579 ANTENNA__359__B1
*580 ANTENNA__359__B2
*581 ANTENNA__360__I
*582 ANTENNA__361__A1
*583 ANTENNA__361__A2
*584 ANTENNA__362__A1
*585 ANTENNA__362__A2
*586 ANTENNA__362__B1
*587 ANTENNA__362__B2
*588 ANTENNA__363__A1
*589 ANTENNA__363__A2
*590 ANTENNA__364__A1
*591 ANTENNA__364__A2
*592 ANTENNA__364__A3
*593 ANTENNA__365__A1
*594 ANTENNA__365__A2
*595 ANTENNA__366__A1
*596 ANTENNA__366__A2
*597 ANTENNA__366__B1
*598 ANTENNA__366__B2
*599 ANTENNA__366__C
*600 ANTENNA__367__A1
*601 ANTENNA__367__A2
*602 ANTENNA__367__B1
*603 ANTENNA__367__B2
*604 ANTENNA__368__A1
*605 ANTENNA__368__A2
*606 ANTENNA__369__I
*607 ANTENNA__370__A1
*608 ANTENNA__370__A2
*609 ANTENNA__371__A1
*610 ANTENNA__371__A2
*611 ANTENNA__373__A1
*612 ANTENNA__373__A2
*613 ANTENNA__374__I0
*614 ANTENNA__374__S
*615 ANTENNA__375__A1
*616 ANTENNA__375__A2
*617 ANTENNA__375__B1
*618 ANTENNA__375__B2
*619 ANTENNA__375__C
*620 ANTENNA__377__A1
*621 ANTENNA__377__A2
*622 ANTENNA__378__A1
*623 ANTENNA__378__A2
*624 ANTENNA__379__A1
*625 ANTENNA__379__A2
*626 ANTENNA__381__A1
*627 ANTENNA__381__A2
*628 ANTENNA__383__A1
*629 ANTENNA__383__A2
*630 ANTENNA__384__A1
*631 ANTENNA__384__A2
*632 ANTENNA__384__B1
*633 ANTENNA__384__B2
*634 ANTENNA__384__C1
*635 ANTENNA__384__C2
*636 ANTENNA__385__A1
*637 ANTENNA__385__A2
*638 ANTENNA__386__A1
*639 ANTENNA__386__A2
*640 ANTENNA__388__A1
*641 ANTENNA__388__A2
*642 ANTENNA__389__A1
*643 ANTENNA__390__A1
*644 ANTENNA__390__A2
*645 ANTENNA__391__A1
*646 ANTENNA__391__A2
*647 ANTENNA__391__B
*648 ANTENNA__392__A1
*649 ANTENNA__392__A2
*650 ANTENNA__392__B1
*651 ANTENNA__392__B2
*652 ANTENNA__394__A1
*653 ANTENNA__394__A2
*654 ANTENNA__395__A1
*655 ANTENNA__395__A2
*656 ANTENNA__396__A1
*657 ANTENNA__396__A2
*658 ANTENNA__398__A1
*659 ANTENNA__398__A2
*660 ANTENNA__400__A1
*661 ANTENNA__400__A2
*662 ANTENNA__401__A1
*663 ANTENNA__401__A2
*664 ANTENNA__401__B1
*665 ANTENNA__401__B2
*666 ANTENNA__401__C
*667 ANTENNA__402__A1
*668 ANTENNA__402__A2
*669 ANTENNA__404__A1
*670 ANTENNA__404__A2
*671 ANTENNA__405__A1
*672 ANTENNA__405__A2
*673 ANTENNA__407__A1
*674 ANTENNA__407__A2
*675 ANTENNA__407__B
*676 ANTENNA__408__A1
*677 ANTENNA__408__A2
*678 ANTENNA__408__B
*679 ANTENNA__409__A1
*680 ANTENNA__409__A2
*681 ANTENNA__409__B
*682 ANTENNA__410__A1
*683 ANTENNA__410__A2
*684 ANTENNA__410__B1
*685 ANTENNA__410__B2
*686 ANTENNA__411__A1
*687 ANTENNA__412__A1
*688 ANTENNA__412__A2
*689 ANTENNA__413__A2
*690 ANTENNA__413__A4
*691 ANTENNA__414__A1
*692 ANTENNA__414__A2
*693 ANTENNA__415__C
*694 ANTENNA__416__A1
*695 ANTENNA__416__A2
*696 ANTENNA__419__A1
*697 ANTENNA__419__A2
*698 ANTENNA__421__A1
*699 ANTENNA__421__A2
*700 ANTENNA__421__B1
*701 ANTENNA__421__B2
*702 ANTENNA__421__C1
*703 ANTENNA__421__C2
*704 ANTENNA__422__A1
*705 ANTENNA__423__A1
*706 ANTENNA__423__A2
*707 ANTENNA__423__B
*708 ANTENNA__424__A1
*709 ANTENNA__424__A2
*710 ANTENNA__426__A1
*711 ANTENNA__426__A2
*712 ANTENNA__429__A1
*713 ANTENNA__429__A2
*714 ANTENNA__430__A1
*715 ANTENNA__430__A2
*716 ANTENNA__430__B1
*717 ANTENNA__430__B2
*718 ANTENNA__431__B
*719 ANTENNA__432__A1
*720 ANTENNA__432__A2
*721 ANTENNA__434__A1
*722 ANTENNA__434__A2
*723 ANTENNA__436__A1
*724 ANTENNA__436__A2
*725 ANTENNA__438__I0
*726 ANTENNA__438__I1
*727 ANTENNA__438__I3
*728 ANTENNA__438__S0
*729 ANTENNA__438__S1
*730 ANTENNA__439__I
*731 ANTENNA__440__A1
*732 ANTENNA__440__A2
*733 ANTENNA__441__A1
*734 ANTENNA__441__A2
*735 ANTENNA__442__A1
*736 ANTENNA__442__A2
*737 ANTENNA__445__A1
*738 ANTENNA__446__A1
*739 ANTENNA__446__A2
*740 ANTENNA__446__B
*741 ANTENNA__447__A1
*742 ANTENNA__447__A2
*743 ANTENNA__447__B1
*744 ANTENNA__447__B2
*745 ANTENNA__451__A1
*746 ANTENNA__451__A2
*747 ANTENNA__454__A1
*748 ANTENNA__455__A1
*749 ANTENNA__455__A2
*750 ANTENNA__457__A1
*751 ANTENNA__457__A2
*752 ANTENNA__457__B1
*753 ANTENNA__457__B2
*754 ANTENNA__457__C1
*755 ANTENNA__457__C2
*756 ANTENNA__458__A1
*757 ANTENNA__458__A2
*758 ANTENNA__459__A1
*759 ANTENNA__459__A2
*760 ANTENNA__460__A1
*761 ANTENNA__460__A2
*762 ANTENNA__464__I0
*763 ANTENNA__464__I1
*764 ANTENNA__464__I3
*765 ANTENNA__464__S0
*766 ANTENNA__464__S1
*767 ANTENNA__466__A1
*768 ANTENNA__466__A2
*769 ANTENNA__468__A1
*770 ANTENNA__468__A2
*771 ANTENNA__468__B
*772 ANTENNA__470__A1
*773 ANTENNA__471__I0
*774 ANTENNA__471__I1
*775 ANTENNA__471__I3
*776 ANTENNA__471__S0
*777 ANTENNA__471__S1
*778 ANTENNA__473__A1
*779 ANTENNA__473__A2
*780 ANTENNA__474__I
*781 ANTENNA__476__A1
*782 ANTENNA__476__A2
*783 ANTENNA__478__I0
*784 ANTENNA__478__I1
*785 ANTENNA__478__I3
*786 ANTENNA__478__S0
*787 ANTENNA__478__S1
*788 ANTENNA__480__A1
*789 ANTENNA__480__A2
*790 ANTENNA__481__A1
*791 ANTENNA__484__A1
*792 ANTENNA__485__A1
*793 ANTENNA__485__A2
*794 ANTENNA__485__B
*795 ANTENNA__489__A1
*796 ANTENNA__489__A2
*797 ANTENNA__490__A1
*798 ANTENNA__490__A2
*799 ANTENNA__490__B1
*800 ANTENNA__490__B2
*801 ANTENNA__492__A1
*802 ANTENNA__494__A1
*803 ANTENNA__494__A2
*804 ANTENNA__495__A1
*805 ANTENNA__495__A2
*806 ANTENNA__495__B
*807 ANTENNA__496__A1
*808 ANTENNA__496__A2
*809 ANTENNA__497__A1
*810 ANTENNA__497__A2
*811 ANTENNA__498__A1
*812 ANTENNA__498__A2
*813 ANTENNA__499__B2
*814 ANTENNA__500__A1
*815 ANTENNA__500__A2
*816 ANTENNA__501__A1
*817 ANTENNA__501__A2
*818 ANTENNA__501__C
*819 ANTENNA__502__A1
*820 ANTENNA__502__A2
*821 ANTENNA__502__A3
*822 ANTENNA__503__A1
*823 ANTENNA__503__A2
*824 ANTENNA__503__B1
*825 ANTENNA__503__B2
*826 ANTENNA__503__C1
*827 ANTENNA__503__C2
*828 ANTENNA__504__A1
*829 ANTENNA__504__A2
*830 ANTENNA__505__A1
*831 ANTENNA__505__A2
*832 ANTENNA__506__A1
*833 ANTENNA__506__A2
*834 ANTENNA__507__A2
*835 ANTENNA__508__A1
*836 ANTENNA__508__A2
*837 ANTENNA__509__A1
*838 ANTENNA__509__A2
*839 ANTENNA__510__A1
*840 ANTENNA__511__CLK
*841 ANTENNA__511__D
*842 ANTENNA__512__CLK
*843 ANTENNA__512__D
*844 ANTENNA__513__CLK
*845 ANTENNA__513__D
*846 ANTENNA__514__CLK
*847 ANTENNA__514__D
*848 ANTENNA__515__CLK
*849 ANTENNA__515__D
*850 ANTENNA__516__CLK
*851 ANTENNA__516__D
*852 ANTENNA__517__CLK
*853 ANTENNA__517__D
*854 ANTENNA__518__CLK
*855 ANTENNA__518__D
*856 ANTENNA__519__CLK
*857 ANTENNA__520__CLK
*858 ANTENNA__520__D
*859 ANTENNA__521__CLK
*860 ANTENNA__521__D
*861 ANTENNA__522__CLK
*862 ANTENNA__522__D
*863 ANTENNA__523__CLK
*864 ANTENNA__523__D
*865 ANTENNA__524__CLK
*866 ANTENNA__524__D
*867 ANTENNA__525__CLK
*868 ANTENNA__525__D
*869 ANTENNA__526__CLK
*870 ANTENNA__526__D
*871 ANTENNA__527__CLK
*872 ANTENNA__527__D
*873 ANTENNA__528__CLK
*874 ANTENNA__528__D
*875 ANTENNA__529__CLK
*876 ANTENNA__530__CLK
*877 ANTENNA__530__D
*878 ANTENNA__531__CLK
*879 ANTENNA__531__D
*880 ANTENNA__532__CLK
*881 ANTENNA__532__D
*882 ANTENNA__533__CLK
*883 ANTENNA__533__D
*884 ANTENNA__534__CLK
*885 ANTENNA__535__CLK
*886 ANTENNA__536__CLK
*887 ANTENNA__537__CLK
*888 ANTENNA__537__D
*889 ANTENNA__538__CLK
*890 ANTENNA__538__D
*891 ANTENNA__539__CLK
*892 ANTENNA__540__CLK
*893 ANTENNA__540__D
*894 ANTENNA__541__CLK
*895 ANTENNA__541__D
*896 ANTENNA__542__CLK
*897 ANTENNA__542__D
*898 ANTENNA__543__CLK
*899 ANTENNA__543__D
*900 ANTENNA__544__CLK
*901 ANTENNA__544__D
*902 ANTENNA__545__CLK
*903 ANTENNA__546__CLK
*904 ANTENNA__546__D
*905 ANTENNA__547__CLK
*906 ANTENNA__547__D
*907 ANTENNA__548__CLK
*908 ANTENNA__548__D
*909 ANTENNA_clkbuf_0_clk_I
*910 ANTENNA_input10_I
*911 ANTENNA_input11_I
*912 ANTENNA_input12_I
*913 ANTENNA_input13_I
*914 ANTENNA_input14_I
*915 ANTENNA_input15_I
*916 ANTENNA_input16_I
*917 ANTENNA_input17_I
*918 ANTENNA_input1_I
*919 ANTENNA_input2_I
*920 ANTENNA_input3_I
*921 ANTENNA_input4_I
*922 ANTENNA_input5_I
*923 ANTENNA_input6_I
*924 ANTENNA_input7_I
*925 ANTENNA_input8_I
*926 ANTENNA_input9_I
*927 ANTENNA_output18_I
*928 ANTENNA_output19_I
*929 ANTENNA_output25_I
*930 FILLER_0_104
*931 FILLER_0_107
*932 FILLER_0_123
*933 FILLER_0_127
*934 FILLER_0_129
*935 FILLER_0_132
*936 FILLER_0_142
*937 FILLER_0_157
*938 FILLER_0_173
*939 FILLER_0_177
*940 FILLER_0_192
*941 FILLER_0_2
*942 FILLER_0_208
*943 FILLER_0_212
*944 FILLER_0_216
*945 FILLER_0_218
*946 FILLER_0_23
*947 FILLER_0_233
*948 FILLER_0_241
*949 FILLER_0_247
*950 FILLER_0_255
*951 FILLER_0_259
*952 FILLER_0_27
*953 FILLER_0_275
*954 FILLER_0_279
*955 FILLER_0_282
*956 FILLER_0_298
*957 FILLER_0_314
*958 FILLER_0_317
*959 FILLER_0_349
*960 FILLER_0_352
*961 FILLER_0_367
*962 FILLER_0_37
*963 FILLER_0_383
*964 FILLER_0_387
*965 FILLER_0_402
*966 FILLER_0_418
*967 FILLER_0_422
*968 FILLER_0_426
*969 FILLER_0_428
*970 FILLER_0_443
*971 FILLER_0_447
*972 FILLER_0_45
*973 FILLER_0_450
*974 FILLER_0_454
*975 FILLER_0_457
*976 FILLER_0_466
*977 FILLER_0_470
*978 FILLER_0_485
*979 FILLER_0_489
*980 FILLER_0_49
*981 FILLER_0_492
*982 FILLER_0_508
*983 FILLER_0_524
*984 FILLER_0_527
*985 FILLER_0_559
*986 FILLER_0_562
*987 FILLER_0_577
*988 FILLER_0_593
*989 FILLER_0_597
*990 FILLER_0_6
*991 FILLER_0_612
*992 FILLER_0_628
*993 FILLER_0_632
*994 FILLER_0_634
*995 FILLER_0_637
*996 FILLER_0_65
*997 FILLER_0_653
*998 FILLER_0_661
*999 FILLER_0_667
*1000 FILLER_0_683
*1001 FILLER_0_687
*1002 FILLER_0_69
*1003 FILLER_0_72
*1004 FILLER_0_8
*1005 FILLER_0_88
*1006 FILLER_10_101
*1007 FILLER_10_105
*1008 FILLER_10_108
*1009 FILLER_10_172
*1010 FILLER_10_176
*1011 FILLER_10_179
*1012 FILLER_10_2
*1013 FILLER_10_243
*1014 FILLER_10_247
*1015 FILLER_10_250
*1016 FILLER_10_314
*1017 FILLER_10_318
*1018 FILLER_10_321
*1019 FILLER_10_34
*1020 FILLER_10_37
*1021 FILLER_10_385
*1022 FILLER_10_389
*1023 FILLER_10_392
*1024 FILLER_10_456
*1025 FILLER_10_460
*1026 FILLER_10_463
*1027 FILLER_10_527
*1028 FILLER_10_531
*1029 FILLER_10_534
*1030 FILLER_10_598
*1031 FILLER_10_602
*1032 FILLER_10_605
*1033 FILLER_10_669
*1034 FILLER_10_673
*1035 FILLER_10_676
*1036 FILLER_10_684
*1037 FILLER_11_137
*1038 FILLER_11_141
*1039 FILLER_11_144
*1040 FILLER_11_2
*1041 FILLER_11_208
*1042 FILLER_11_212
*1043 FILLER_11_215
*1044 FILLER_11_279
*1045 FILLER_11_283
*1046 FILLER_11_286
*1047 FILLER_11_350
*1048 FILLER_11_354
*1049 FILLER_11_357
*1050 FILLER_11_421
*1051 FILLER_11_425
*1052 FILLER_11_428
*1053 FILLER_11_492
*1054 FILLER_11_496
*1055 FILLER_11_499
*1056 FILLER_11_563
*1057 FILLER_11_567
*1058 FILLER_11_570
*1059 FILLER_11_634
*1060 FILLER_11_638
*1061 FILLER_11_641
*1062 FILLER_11_66
*1063 FILLER_11_673
*1064 FILLER_11_681
*1065 FILLER_11_685
*1066 FILLER_11_687
*1067 FILLER_11_70
*1068 FILLER_11_73
*1069 FILLER_12_101
*1070 FILLER_12_105
*1071 FILLER_12_108
*1072 FILLER_12_172
*1073 FILLER_12_176
*1074 FILLER_12_179
*1075 FILLER_12_2
*1076 FILLER_12_243
*1077 FILLER_12_247
*1078 FILLER_12_250
*1079 FILLER_12_314
*1080 FILLER_12_318
*1081 FILLER_12_321
*1082 FILLER_12_34
*1083 FILLER_12_37
*1084 FILLER_12_385
*1085 FILLER_12_389
*1086 FILLER_12_392
*1087 FILLER_12_456
*1088 FILLER_12_460
*1089 FILLER_12_463
*1090 FILLER_12_527
*1091 FILLER_12_531
*1092 FILLER_12_534
*1093 FILLER_12_598
*1094 FILLER_12_602
*1095 FILLER_12_605
*1096 FILLER_12_669
*1097 FILLER_12_673
*1098 FILLER_12_676
*1099 FILLER_12_684
*1100 FILLER_13_137
*1101 FILLER_13_141
*1102 FILLER_13_144
*1103 FILLER_13_2
*1104 FILLER_13_208
*1105 FILLER_13_212
*1106 FILLER_13_215
*1107 FILLER_13_279
*1108 FILLER_13_283
*1109 FILLER_13_286
*1110 FILLER_13_350
*1111 FILLER_13_354
*1112 FILLER_13_357
*1113 FILLER_13_421
*1114 FILLER_13_425
*1115 FILLER_13_428
*1116 FILLER_13_492
*1117 FILLER_13_496
*1118 FILLER_13_499
*1119 FILLER_13_563
*1120 FILLER_13_567
*1121 FILLER_13_570
*1122 FILLER_13_634
*1123 FILLER_13_638
*1124 FILLER_13_641
*1125 FILLER_13_66
*1126 FILLER_13_673
*1127 FILLER_13_681
*1128 FILLER_13_685
*1129 FILLER_13_687
*1130 FILLER_13_70
*1131 FILLER_13_73
*1132 FILLER_14_101
*1133 FILLER_14_105
*1134 FILLER_14_108
*1135 FILLER_14_172
*1136 FILLER_14_176
*1137 FILLER_14_179
*1138 FILLER_14_2
*1139 FILLER_14_243
*1140 FILLER_14_247
*1141 FILLER_14_250
*1142 FILLER_14_314
*1143 FILLER_14_318
*1144 FILLER_14_321
*1145 FILLER_14_34
*1146 FILLER_14_37
*1147 FILLER_14_385
*1148 FILLER_14_389
*1149 FILLER_14_392
*1150 FILLER_14_456
*1151 FILLER_14_460
*1152 FILLER_14_463
*1153 FILLER_14_527
*1154 FILLER_14_531
*1155 FILLER_14_534
*1156 FILLER_14_598
*1157 FILLER_14_602
*1158 FILLER_14_605
*1159 FILLER_14_669
*1160 FILLER_14_673
*1161 FILLER_14_676
*1162 FILLER_14_684
*1163 FILLER_15_137
*1164 FILLER_15_141
*1165 FILLER_15_144
*1166 FILLER_15_2
*1167 FILLER_15_208
*1168 FILLER_15_212
*1169 FILLER_15_215
*1170 FILLER_15_279
*1171 FILLER_15_283
*1172 FILLER_15_286
*1173 FILLER_15_350
*1174 FILLER_15_354
*1175 FILLER_15_357
*1176 FILLER_15_421
*1177 FILLER_15_425
*1178 FILLER_15_428
*1179 FILLER_15_492
*1180 FILLER_15_496
*1181 FILLER_15_499
*1182 FILLER_15_563
*1183 FILLER_15_567
*1184 FILLER_15_570
*1185 FILLER_15_634
*1186 FILLER_15_638
*1187 FILLER_15_641
*1188 FILLER_15_66
*1189 FILLER_15_673
*1190 FILLER_15_681
*1191 FILLER_15_685
*1192 FILLER_15_687
*1193 FILLER_15_70
*1194 FILLER_15_73
*1195 FILLER_16_101
*1196 FILLER_16_105
*1197 FILLER_16_108
*1198 FILLER_16_172
*1199 FILLER_16_176
*1200 FILLER_16_179
*1201 FILLER_16_2
*1202 FILLER_16_243
*1203 FILLER_16_247
*1204 FILLER_16_250
*1205 FILLER_16_314
*1206 FILLER_16_318
*1207 FILLER_16_321
*1208 FILLER_16_34
*1209 FILLER_16_37
*1210 FILLER_16_385
*1211 FILLER_16_389
*1212 FILLER_16_392
*1213 FILLER_16_456
*1214 FILLER_16_460
*1215 FILLER_16_463
*1216 FILLER_16_527
*1217 FILLER_16_531
*1218 FILLER_16_534
*1219 FILLER_16_598
*1220 FILLER_16_602
*1221 FILLER_16_605
*1222 FILLER_16_669
*1223 FILLER_16_673
*1224 FILLER_16_676
*1225 FILLER_16_684
*1226 FILLER_17_137
*1227 FILLER_17_141
*1228 FILLER_17_144
*1229 FILLER_17_2
*1230 FILLER_17_208
*1231 FILLER_17_212
*1232 FILLER_17_215
*1233 FILLER_17_279
*1234 FILLER_17_283
*1235 FILLER_17_286
*1236 FILLER_17_350
*1237 FILLER_17_354
*1238 FILLER_17_357
*1239 FILLER_17_421
*1240 FILLER_17_425
*1241 FILLER_17_428
*1242 FILLER_17_492
*1243 FILLER_17_496
*1244 FILLER_17_499
*1245 FILLER_17_563
*1246 FILLER_17_567
*1247 FILLER_17_570
*1248 FILLER_17_634
*1249 FILLER_17_638
*1250 FILLER_17_641
*1251 FILLER_17_66
*1252 FILLER_17_673
*1253 FILLER_17_681
*1254 FILLER_17_685
*1255 FILLER_17_687
*1256 FILLER_17_70
*1257 FILLER_17_73
*1258 FILLER_18_101
*1259 FILLER_18_105
*1260 FILLER_18_108
*1261 FILLER_18_172
*1262 FILLER_18_176
*1263 FILLER_18_179
*1264 FILLER_18_2
*1265 FILLER_18_243
*1266 FILLER_18_247
*1267 FILLER_18_250
*1268 FILLER_18_314
*1269 FILLER_18_318
*1270 FILLER_18_321
*1271 FILLER_18_34
*1272 FILLER_18_37
*1273 FILLER_18_385
*1274 FILLER_18_389
*1275 FILLER_18_392
*1276 FILLER_18_456
*1277 FILLER_18_460
*1278 FILLER_18_463
*1279 FILLER_18_527
*1280 FILLER_18_531
*1281 FILLER_18_534
*1282 FILLER_18_598
*1283 FILLER_18_602
*1284 FILLER_18_605
*1285 FILLER_18_669
*1286 FILLER_18_673
*1287 FILLER_18_676
*1288 FILLER_18_684
*1289 FILLER_19_137
*1290 FILLER_19_141
*1291 FILLER_19_144
*1292 FILLER_19_2
*1293 FILLER_19_208
*1294 FILLER_19_212
*1295 FILLER_19_215
*1296 FILLER_19_279
*1297 FILLER_19_283
*1298 FILLER_19_286
*1299 FILLER_19_350
*1300 FILLER_19_354
*1301 FILLER_19_357
*1302 FILLER_19_421
*1303 FILLER_19_425
*1304 FILLER_19_428
*1305 FILLER_19_492
*1306 FILLER_19_496
*1307 FILLER_19_499
*1308 FILLER_19_563
*1309 FILLER_19_567
*1310 FILLER_19_570
*1311 FILLER_19_634
*1312 FILLER_19_638
*1313 FILLER_19_641
*1314 FILLER_19_66
*1315 FILLER_19_673
*1316 FILLER_19_681
*1317 FILLER_19_685
*1318 FILLER_19_687
*1319 FILLER_19_70
*1320 FILLER_19_73
*1321 FILLER_1_100
*1322 FILLER_1_104
*1323 FILLER_1_112
*1324 FILLER_1_116
*1325 FILLER_1_120
*1326 FILLER_1_130
*1327 FILLER_1_138
*1328 FILLER_1_144
*1329 FILLER_1_160
*1330 FILLER_1_168
*1331 FILLER_1_2
*1332 FILLER_1_200
*1333 FILLER_1_208
*1334 FILLER_1_212
*1335 FILLER_1_215
*1336 FILLER_1_223
*1337 FILLER_1_229
*1338 FILLER_1_233
*1339 FILLER_1_243
*1340 FILLER_1_247
*1341 FILLER_1_254
*1342 FILLER_1_270
*1343 FILLER_1_278
*1344 FILLER_1_282
*1345 FILLER_1_286
*1346 FILLER_1_290
*1347 FILLER_1_292
*1348 FILLER_1_299
*1349 FILLER_1_315
*1350 FILLER_1_323
*1351 FILLER_1_327
*1352 FILLER_1_335
*1353 FILLER_1_34
*1354 FILLER_1_351
*1355 FILLER_1_357
*1356 FILLER_1_373
*1357 FILLER_1_381
*1358 FILLER_1_413
*1359 FILLER_1_421
*1360 FILLER_1_425
*1361 FILLER_1_428
*1362 FILLER_1_435
*1363 FILLER_1_439
*1364 FILLER_1_443
*1365 FILLER_1_447
*1366 FILLER_1_457
*1367 FILLER_1_467
*1368 FILLER_1_475
*1369 FILLER_1_483
*1370 FILLER_1_491
*1371 FILLER_1_495
*1372 FILLER_1_499
*1373 FILLER_1_50
*1374 FILLER_1_503
*1375 FILLER_1_510
*1376 FILLER_1_542
*1377 FILLER_1_558
*1378 FILLER_1_566
*1379 FILLER_1_570
*1380 FILLER_1_573
*1381 FILLER_1_58
*1382 FILLER_1_581
*1383 FILLER_1_613
*1384 FILLER_1_629
*1385 FILLER_1_637
*1386 FILLER_1_641
*1387 FILLER_1_649
*1388 FILLER_1_651
*1389 FILLER_1_654
*1390 FILLER_1_66
*1391 FILLER_1_670
*1392 FILLER_1_686
*1393 FILLER_1_70
*1394 FILLER_1_73
*1395 FILLER_1_81
*1396 FILLER_1_85
*1397 FILLER_1_87
*1398 FILLER_1_96
*1399 FILLER_20_101
*1400 FILLER_20_105
*1401 FILLER_20_108
*1402 FILLER_20_172
*1403 FILLER_20_176
*1404 FILLER_20_179
*1405 FILLER_20_2
*1406 FILLER_20_243
*1407 FILLER_20_247
*1408 FILLER_20_250
*1409 FILLER_20_314
*1410 FILLER_20_318
*1411 FILLER_20_321
*1412 FILLER_20_34
*1413 FILLER_20_37
*1414 FILLER_20_385
*1415 FILLER_20_389
*1416 FILLER_20_392
*1417 FILLER_20_456
*1418 FILLER_20_460
*1419 FILLER_20_463
*1420 FILLER_20_527
*1421 FILLER_20_531
*1422 FILLER_20_534
*1423 FILLER_20_598
*1424 FILLER_20_602
*1425 FILLER_20_605
*1426 FILLER_20_669
*1427 FILLER_20_673
*1428 FILLER_20_676
*1429 FILLER_20_684
*1430 FILLER_21_137
*1431 FILLER_21_141
*1432 FILLER_21_144
*1433 FILLER_21_2
*1434 FILLER_21_208
*1435 FILLER_21_212
*1436 FILLER_21_215
*1437 FILLER_21_279
*1438 FILLER_21_283
*1439 FILLER_21_286
*1440 FILLER_21_350
*1441 FILLER_21_354
*1442 FILLER_21_357
*1443 FILLER_21_421
*1444 FILLER_21_425
*1445 FILLER_21_428
*1446 FILLER_21_492
*1447 FILLER_21_496
*1448 FILLER_21_499
*1449 FILLER_21_563
*1450 FILLER_21_567
*1451 FILLER_21_570
*1452 FILLER_21_634
*1453 FILLER_21_638
*1454 FILLER_21_641
*1455 FILLER_21_66
*1456 FILLER_21_673
*1457 FILLER_21_681
*1458 FILLER_21_685
*1459 FILLER_21_687
*1460 FILLER_21_70
*1461 FILLER_21_73
*1462 FILLER_22_101
*1463 FILLER_22_105
*1464 FILLER_22_108
*1465 FILLER_22_172
*1466 FILLER_22_176
*1467 FILLER_22_179
*1468 FILLER_22_2
*1469 FILLER_22_243
*1470 FILLER_22_247
*1471 FILLER_22_250
*1472 FILLER_22_314
*1473 FILLER_22_318
*1474 FILLER_22_321
*1475 FILLER_22_34
*1476 FILLER_22_37
*1477 FILLER_22_385
*1478 FILLER_22_389
*1479 FILLER_22_392
*1480 FILLER_22_456
*1481 FILLER_22_460
*1482 FILLER_22_463
*1483 FILLER_22_527
*1484 FILLER_22_531
*1485 FILLER_22_534
*1486 FILLER_22_598
*1487 FILLER_22_602
*1488 FILLER_22_605
*1489 FILLER_22_669
*1490 FILLER_22_673
*1491 FILLER_22_676
*1492 FILLER_22_684
*1493 FILLER_23_137
*1494 FILLER_23_141
*1495 FILLER_23_144
*1496 FILLER_23_2
*1497 FILLER_23_208
*1498 FILLER_23_212
*1499 FILLER_23_215
*1500 FILLER_23_279
*1501 FILLER_23_283
*1502 FILLER_23_286
*1503 FILLER_23_350
*1504 FILLER_23_354
*1505 FILLER_23_357
*1506 FILLER_23_421
*1507 FILLER_23_425
*1508 FILLER_23_428
*1509 FILLER_23_492
*1510 FILLER_23_496
*1511 FILLER_23_499
*1512 FILLER_23_563
*1513 FILLER_23_567
*1514 FILLER_23_570
*1515 FILLER_23_634
*1516 FILLER_23_638
*1517 FILLER_23_641
*1518 FILLER_23_66
*1519 FILLER_23_673
*1520 FILLER_23_681
*1521 FILLER_23_685
*1522 FILLER_23_687
*1523 FILLER_23_70
*1524 FILLER_23_73
*1525 FILLER_24_101
*1526 FILLER_24_105
*1527 FILLER_24_108
*1528 FILLER_24_172
*1529 FILLER_24_176
*1530 FILLER_24_179
*1531 FILLER_24_2
*1532 FILLER_24_243
*1533 FILLER_24_247
*1534 FILLER_24_250
*1535 FILLER_24_314
*1536 FILLER_24_318
*1537 FILLER_24_321
*1538 FILLER_24_34
*1539 FILLER_24_37
*1540 FILLER_24_385
*1541 FILLER_24_389
*1542 FILLER_24_392
*1543 FILLER_24_456
*1544 FILLER_24_460
*1545 FILLER_24_463
*1546 FILLER_24_527
*1547 FILLER_24_531
*1548 FILLER_24_534
*1549 FILLER_24_598
*1550 FILLER_24_602
*1551 FILLER_24_605
*1552 FILLER_24_669
*1553 FILLER_24_673
*1554 FILLER_24_676
*1555 FILLER_24_684
*1556 FILLER_25_137
*1557 FILLER_25_141
*1558 FILLER_25_144
*1559 FILLER_25_2
*1560 FILLER_25_208
*1561 FILLER_25_212
*1562 FILLER_25_215
*1563 FILLER_25_279
*1564 FILLER_25_283
*1565 FILLER_25_286
*1566 FILLER_25_350
*1567 FILLER_25_354
*1568 FILLER_25_357
*1569 FILLER_25_421
*1570 FILLER_25_425
*1571 FILLER_25_428
*1572 FILLER_25_492
*1573 FILLER_25_496
*1574 FILLER_25_499
*1575 FILLER_25_563
*1576 FILLER_25_567
*1577 FILLER_25_570
*1578 FILLER_25_634
*1579 FILLER_25_638
*1580 FILLER_25_641
*1581 FILLER_25_66
*1582 FILLER_25_673
*1583 FILLER_25_681
*1584 FILLER_25_685
*1585 FILLER_25_687
*1586 FILLER_25_70
*1587 FILLER_25_73
*1588 FILLER_26_101
*1589 FILLER_26_105
*1590 FILLER_26_108