*SPEF "ieee 1481-1999"
*DESIGN "collatz"
*DATE "11:11:11 Fri 11 11, 1111"
*VENDOR "OpenRCX"
*PROGRAM "Parallel Extraction"
*VERSION "1.0"
*DESIGN_FLOW "NAME_SCOPE LOCAL" "PIN_CAP NONE"
*DIVIDER /
*DELIMITER :
*BUS_DELIMITER []
*T_UNIT 1 NS
*C_UNIT 1 PF
*R_UNIT 1 OHM
*L_UNIT 1 HENRY

*NAME_MAP
*1 bs
*2 clk
*3 co[0]
*4 co[10]
*5 co[11]
*6 co[12]
*7 co[13]
*8 co[14]
*9 co[15]
*10 co[1]
*11 co[2]
*12 co[3]
*13 co[4]
*14 co[5]
*15 co[6]
*16 co[7]
*17 co[8]
*18 co[9]
*19 st
*22 x[0]
*23 x[10]
*24 x[11]
*25 x[12]
*26 x[13]
*27 x[14]
*28 x[15]
*29 x[1]
*30 x[2]
*31 x[3]
*32 x[4]
*33 x[5]
*34 x[6]
*35 x[7]
*36 x[8]
*37 x[9]
*38 Datapath\.i\[0\]
*39 Datapath\.i\[10\]
*40 Datapath\.i\[11\]
*41 Datapath\.i\[12\]
*42 Datapath\.i\[13\]
*43 Datapath\.i\[14\]
*44 Datapath\.i\[15\]
*45 Datapath\.i\[1\]
*46 Datapath\.i\[2\]
*47 Datapath\.i\[3\]
*48 Datapath\.i\[4\]
*49 Datapath\.i\[5\]
*50 Datapath\.i\[6\]
*51 Datapath\.i\[7\]
*52 Datapath\.i\[8\]
*53 Datapath\.i\[9\]
*54 Datapath\.k\[0\]
*55 Datapath\.k\[10\]
*56 Datapath\.k\[11\]
*57 Datapath\.k\[12\]
*58 Datapath\.k\[13\]
*59 Datapath\.k\[14\]
*60 Datapath\.k\[15\]
*61 Datapath\.k\[16\]
*62 Datapath\.k\[17\]
*63 Datapath\.k\[18\]
*64 Datapath\.k\[19\]
*65 Datapath\.k\[1\]
*66 Datapath\.k\[2\]
*67 Datapath\.k\[3\]
*68 Datapath\.k\[4\]
*69 Datapath\.k\[5\]
*70 Datapath\.k\[6\]
*71 Datapath\.k\[7\]
*72 Datapath\.k\[8\]
*73 Datapath\.k\[9\]
*74 FSM\.CS\[0\]
*75 FSM\.CS\[1\]
*76 FSM\.NS\[0\]
*77 FSM\.NS\[1\]
*78 _000_
*79 _001_
*80 _002_
*81 _003_
*82 _004_
*83 _005_
*84 _006_
*85 _007_
*86 _008_
*87 _009_
*88 _010_
*89 _011_
*90 _012_
*91 _013_
*92 _014_
*93 _015_
*94 _016_
*95 _017_
*96 _018_
*97 _019_
*98 _020_
*99 _021_
*100 _022_
*101 _023_
*102 _024_
*103 _025_
*104 _026_
*105 _027_
*106 _028_
*107 _029_
*108 _030_
*109 _031_
*110 _032_
*111 _033_
*112 _034_
*113 _035_
*114 _036_
*115 _037_
*116 _038_
*117 _039_
*118 _040_
*119 _041_
*120 _042_
*121 _043_
*122 _044_
*123 _045_
*124 _046_
*125 _047_
*126 _048_
*127 _049_
*128 _050_
*129 _051_
*130 _052_
*131 _053_
*132 _054_
*133 _055_
*134 _056_
*135 _057_
*136 _058_
*137 _059_
*138 _060_
*139 _061_
*140 _062_
*141 _063_
*142 _064_
*143 _065_
*144 _066_
*145 _067_
*146 _068_
*147 _069_
*148 _070_
*149 _071_
*150 _072_
*151 _073_
*152 _074_
*153 _075_
*154 _076_
*155 _077_
*156 _078_
*157 _079_
*158 _080_
*159 _081_
*160 _082_
*161 _083_
*162 _084_
*163 _085_
*164 _086_
*165 _087_
*166 _088_
*167 _089_
*168 _090_
*169 _091_
*170 _092_
*171 _093_
*172 _094_
*173 _095_
*174 _096_
*175 _097_
*176 _098_
*177 _099_
*178 _100_
*179 _101_
*180 _102_
*181 _103_
*182 _104_
*183 _105_
*184 _106_
*185 _107_
*186 _108_
*187 _109_
*188 _110_
*189 _111_
*190 _112_
*191 _113_
*192 _114_
*193 _115_
*194 _116_
*195 _117_
*196 _118_
*197 _119_
*198 _120_
*199 _121_
*200 _122_
*201 _123_
*202 _124_
*203 _125_
*204 _126_
*205 _127_
*206 _128_
*207 _129_
*208 _130_
*209 _131_
*210 _132_
*211 _133_
*212 _134_
*213 _135_
*214 _136_
*215 _137_
*216 _138_
*217 _139_
*218 _140_
*219 _141_
*220 _142_
*221 _143_
*222 _144_
*223 _145_
*224 _146_
*225 _147_
*226 _148_
*227 _149_
*228 _150_
*229 _151_
*230 _152_
*231 _153_
*232 _154_
*233 _155_
*234 _156_
*235 _157_
*236 _158_
*237 _159_
*238 _160_
*239 _161_
*240 _162_
*241 _163_
*242 _164_
*243 _165_
*244 _166_
*245 _167_
*246 _168_
*247 _169_
*248 _170_
*249 _171_
*250 _172_
*251 _173_
*252 _174_
*253 _175_
*254 _176_
*255 _177_
*256 _178_
*257 _179_
*258 _180_
*259 _181_
*260 _182_
*261 _183_
*262 _184_
*263 _185_
*264 _186_
*265 _187_
*266 _188_
*267 _189_
*268 _190_
*269 _191_
*270 _192_
*271 _193_
*272 _194_
*273 _195_
*274 _196_
*275 _197_
*276 _198_
*277 _199_
*278 _200_
*279 _201_
*280 _202_
*281 _203_
*282 _204_
*283 _205_
*284 _206_
*285 _207_
*286 _208_
*287 _209_
*288 _210_
*289 _211_
*290 _212_
*291 _213_
*292 _214_
*293 _215_
*294 _216_
*295 _217_
*296 _218_
*297 _219_
*298 _220_
*299 _221_
*300 _222_
*301 _223_
*302 _224_
*303 _225_
*304 _226_
*305 _227_
*306 _228_
*307 _229_
*308 _230_
*309 _231_
*310 _232_
*311 _233_
*312 _234_
*313 _235_
*314 _236_
*315 _237_
*316 _238_
*317 _239_
*318 _240_
*319 _241_
*320 _242_
*321 _243_
*322 _244_
*323 _245_
*324 _246_
*325 _247_
*326 _248_
*327 _249_
*328 _250_
*329 _251_
*330 _252_
*331 _253_
*332 _254_
*333 _255_
*334 _256_
*335 _257_
*336 _258_
*337 _259_
*338 _260_
*339 _261_
*340 _262_
*341 _263_
*342 _264_
*343 _265_
*344 _266_
*345 _267_
*346 _268_
*347 _269_
*348 _270_
*349 _271_
*350 _272_
*351 _273_
*352 _274_
*353 _275_
*354 _276_
*355 _277_
*356 _278_
*357 _279_
*358 _280_
*359 _281_
*360 _282_
*361 _283_
*362 _284_
*363 _285_
*364 _286_
*365 _287_
*366 _288_
*367 _289_
*368 _290_
*369 _291_
*370 _292_
*371 _293_
*372 _294_
*373 _295_
*374 _296_
*375 _297_
*376 _298_
*377 _299_
*378 _300_
*379 _301_
*380 _302_
*381 _303_
*382 _304_
*383 _305_
*384 _306_
*385 _307_
*386 _308_
*387 _309_
*388 _310_
*389 _311_
*390 _312_
*391 _313_
*392 _314_
*393 _315_
*394 _316_
*395 _317_
*396 _318_
*397 _319_
*398 _320_
*399 _321_
*400 _322_
*401 _323_
*402 _324_
*403 _325_
*404 _326_
*405 _327_
*406 _328_
*407 _329_
*408 _330_
*409 _331_
*410 _332_
*411 _333_
*412 _334_
*413 _335_
*414 _336_
*415 _337_
*416 _338_
*417 _339_
*418 _340_
*419 _341_
*420 _342_
*421 _343_
*422 clknet_0_clk
*423 clknet_2_0__leaf_clk
*424 clknet_2_1__leaf_clk
*425 clknet_2_2__leaf_clk
*426 clknet_2_3__leaf_clk
*427 net1
*428 net10
*429 net11
*430 net12
*431 net13
*432 net14
*433 net15
*434 net16
*435 net17
*436 net18
*437 net19
*438 net2
*439 net20
*440 net21
*441 net22
*442 net23
*443 net24
*444 net25
*445 net26
*446 net27
*447 net28
*448 net29
*449 net3
*450 net30
*451 net31
*452 net32
*453 net33
*454 net34
*455 net4
*456 net5
*457 net6
*458 net7
*459 net8
*460 net9
*461 ANTENNA__346__I
*462 ANTENNA__347__A1
*463 ANTENNA__347__A2
*464 ANTENNA__348__I
*465 ANTENNA__349__I
*466 ANTENNA__350__A1
*467 ANTENNA__350__A2
*468 ANTENNA__351__I
*469 ANTENNA__353__A1
*470 ANTENNA__355__A1
*471 ANTENNA__358__A1
*472 ANTENNA__360__I
*473 ANTENNA__361__A1
*474 ANTENNA__361__A2
*475 ANTENNA__363__A1
*476 ANTENNA__363__A2
*477 ANTENNA__366__A1
*478 ANTENNA__367__I
*479 ANTENNA__368__A1
*480 ANTENNA__368__A2
*481 ANTENNA__369__I
*482 ANTENNA__370__A1
*483 ANTENNA__371__I
*484 ANTENNA__372__A1
*485 ANTENNA__372__A2
*486 ANTENNA__373__A1
*487 ANTENNA__373__A2
*488 ANTENNA__375__I
*489 ANTENNA__376__A1
*490 ANTENNA__376__A2
*491 ANTENNA__378__A1
*492 ANTENNA__378__A2
*493 ANTENNA__380__A1
*494 ANTENNA__382__A1
*495 ANTENNA__384__A1
*496 ANTENNA__386__A1
*497 ANTENNA__386__A2
*498 ANTENNA__387__I
*499 ANTENNA__388__A1
*500 ANTENNA__388__A2
*501 ANTENNA__389__I
*502 ANTENNA__390__I
*503 ANTENNA__391__A1
*504 ANTENNA__391__A2
*505 ANTENNA__391__B
*506 ANTENNA__392__A1
*507 ANTENNA__392__A2
*508 ANTENNA__393__A4
*509 ANTENNA__395__A1
*510 ANTENNA__395__A2
*511 ANTENNA__396__A1
*512 ANTENNA__396__A2
*513 ANTENNA__396__A3
*514 ANTENNA__396__A4
*515 ANTENNA__397__A1
*516 ANTENNA__398__A1
*517 ANTENNA__398__A2
*518 ANTENNA__398__A3
*519 ANTENNA__399__A1
*520 ANTENNA__399__A2
*521 ANTENNA__400__A2
*522 ANTENNA__401__I
*523 ANTENNA__402__I
*524 ANTENNA__403__A1
*525 ANTENNA__403__A2
*526 ANTENNA__405__I
*527 ANTENNA__407__A1
*528 ANTENNA__408__I
*529 ANTENNA__409__I
*530 ANTENNA__411__A1
*531 ANTENNA__411__A2
*532 ANTENNA__411__A3
*533 ANTENNA__413__A1
*534 ANTENNA__413__A2
*535 ANTENNA__414__I
*536 ANTENNA__417__I
*537 ANTENNA__419__A1
*538 ANTENNA__419__A2
*539 ANTENNA__420__I
*540 ANTENNA__421__I
*541 ANTENNA__422__I
*542 ANTENNA__423__A2
*543 ANTENNA__425__I
*544 ANTENNA__427__A1
*545 ANTENNA__427__A2
*546 ANTENNA__427__A3
*547 ANTENNA__427__A4
*548 ANTENNA__429__I
*549 ANTENNA__430__B
*550 ANTENNA__432__A1
*551 ANTENNA__432__A2
*552 ANTENNA__433__A1
*553 ANTENNA__433__A2
*554 ANTENNA__434__A2
*555 ANTENNA__435__A2
*556 ANTENNA__437__B2
*557 ANTENNA__441__A2
*558 ANTENNA__443__A2
*559 ANTENNA__444__A1
*560 ANTENNA__447__A2
*561 ANTENNA__447__B
*562 ANTENNA__448__A2
*563 ANTENNA__451__A2
*564 ANTENNA__452__I
*565 ANTENNA__453__I
*566 ANTENNA__454__A1
*567 ANTENNA__454__A2
*568 ANTENNA__458__A2
*569 ANTENNA__459__B
*570 ANTENNA__462__A2
*571 ANTENNA__463__A1
*572 ANTENNA__463__A2
*573 ANTENNA__464__A1
*574 ANTENNA__464__A2
*575 ANTENNA__465__A1
*576 ANTENNA__466__A1
*577 ANTENNA__466__A2
*578 ANTENNA__466__A3
*579 ANTENNA__467__A1
*580 ANTENNA__467__A2
*581 ANTENNA__468__A2
*582 ANTENNA__469__A1
*583 ANTENNA__469__A2
*584 ANTENNA__469__B
*585 ANTENNA__470__A1
*586 ANTENNA__470__A2
*587 ANTENNA__471__A1
*588 ANTENNA__471__A2
*589 ANTENNA__472__A2
*590 ANTENNA__473__A1
*591 ANTENNA__473__A2
*592 ANTENNA__475__A2
*593 ANTENNA__476__I
*594 ANTENNA__477__A2
*595 ANTENNA__479__A2
*596 ANTENNA__479__B
*597 ANTENNA__480__A1
*598 ANTENNA__480__A2
*599 ANTENNA__481__A1
*600 ANTENNA__481__A2
*601 ANTENNA__481__A3
*602 ANTENNA__482__A1
*603 ANTENNA__482__A2
*604 ANTENNA__483__A1
*605 ANTENNA__484__A1
*606 ANTENNA__484__A2
*607 ANTENNA__485__A1
*608 ANTENNA__485__A2
*609 ANTENNA__486__I
*610 ANTENNA__487__A1
*611 ANTENNA__487__A2
*612 ANTENNA__488__A1
*613 ANTENNA__489__A1
*614 ANTENNA__489__A4
*615 ANTENNA__490__A2
*616 ANTENNA__491__A2
*617 ANTENNA__494__A3
*618 ANTENNA__497__A3
*619 ANTENNA__498__A1
*620 ANTENNA__498__B
*621 ANTENNA__499__A1
*622 ANTENNA__499__A2
*623 ANTENNA__500__A1
*624 ANTENNA__500__A2
*625 ANTENNA__501__I
*626 ANTENNA__502__B2
*627 ANTENNA__503__A1
*628 ANTENNA__503__A2
*629 ANTENNA__504__A1
*630 ANTENNA__504__A2
*631 ANTENNA__504__B1
*632 ANTENNA__504__C
*633 ANTENNA__505__A2
*634 ANTENNA__505__B1
*635 ANTENNA__505__B2
*636 ANTENNA__505__C
*637 ANTENNA__506__A1
*638 ANTENNA__506__A2
*639 ANTENNA__507__A1
*640 ANTENNA__507__A2
*641 ANTENNA__508__A2
*642 ANTENNA__510__A3
*643 ANTENNA__511__A2
*644 ANTENNA__511__A3
*645 ANTENNA__512__B1
*646 ANTENNA__512__B2
*647 ANTENNA__513__A1
*648 ANTENNA__513__A2
*649 ANTENNA__514__A1
*650 ANTENNA__514__A2
*651 ANTENNA__515__A2
*652 ANTENNA__515__A3
*653 ANTENNA__516__A1
*654 ANTENNA__516__A2
*655 ANTENNA__517__A1
*656 ANTENNA__517__A2
*657 ANTENNA__517__A3
*658 ANTENNA__518__A2
*659 ANTENNA__519__A2
*660 ANTENNA__519__B1
*661 ANTENNA__519__B2
*662 ANTENNA__519__C
*663 ANTENNA__520__B2
*664 ANTENNA__521__A1
*665 ANTENNA__521__A2
*666 ANTENNA__521__B
*667 ANTENNA__522__A1
*668 ANTENNA__522__A2
*669 ANTENNA__523__A1
*670 ANTENNA__523__A2
*671 ANTENNA__524__I
*672 ANTENNA__525__A1
*673 ANTENNA__525__A2
*674 ANTENNA__526__A2
*675 ANTENNA__527__A1
*676 ANTENNA__527__A2
*677 ANTENNA__528__A1
*678 ANTENNA__528__A2
*679 ANTENNA__529__A2
*680 ANTENNA__529__A3
*681 ANTENNA__530__A2
*682 ANTENNA__530__B1
*683 ANTENNA__530__B2
*684 ANTENNA__530__C
*685 ANTENNA__531__I
*686 ANTENNA__532__B1
*687 ANTENNA__532__B2
*688 ANTENNA__533__A1
*689 ANTENNA__533__A2
*690 ANTENNA__534__I
*691 ANTENNA__535__A1
*692 ANTENNA__535__A2
*693 ANTENNA__537__A1
*694 ANTENNA__537__A2
*695 ANTENNA__537__B
*696 ANTENNA__538__A1
*697 ANTENNA__538__A2
*698 ANTENNA__539__A2
*699 ANTENNA__539__B1
*700 ANTENNA__539__B2
*701 ANTENNA__539__C
*702 ANTENNA__540__B1
*703 ANTENNA__540__B2
*704 ANTENNA__541__A1
*705 ANTENNA__541__B
*706 ANTENNA__543__A1
*707 ANTENNA__544__A1
*708 ANTENNA__544__A2
*709 ANTENNA__545__I
*710 ANTENNA__546__A1
*711 ANTENNA__546__A2
*712 ANTENNA__548__A1
*713 ANTENNA__548__A2
*714 ANTENNA__549__A1
*715 ANTENNA__549__A2
*716 ANTENNA__550__A2
*717 ANTENNA__550__A3
*718 ANTENNA__551__A2
*719 ANTENNA__551__B1
*720 ANTENNA__551__B2
*721 ANTENNA__551__C
*722 ANTENNA__552__I
*723 ANTENNA__553__B1
*724 ANTENNA__553__B2
*725 ANTENNA__554__A1
*726 ANTENNA__554__A2
*727 ANTENNA__555__A1
*728 ANTENNA__555__A2
*729 ANTENNA__556__I
*730 ANTENNA__557__A1
*731 ANTENNA__557__A2
*732 ANTENNA__558__A1
*733 ANTENNA__558__A2
*734 ANTENNA__559__A1
*735 ANTENNA__559__A2
*736 ANTENNA__560__A1
*737 ANTENNA__560__A2
*738 ANTENNA__560__A3
*739 ANTENNA__561__A2
*740 ANTENNA__562__A2
*741 ANTENNA__562__B1
*742 ANTENNA__562__B2
*743 ANTENNA__562__C
*744 ANTENNA__563__I
*745 ANTENNA__564__B1
*746 ANTENNA__564__B2
*747 ANTENNA__565__A1
*748 ANTENNA__565__A2
*749 ANTENNA__566__A1
*750 ANTENNA__566__A2
*751 ANTENNA__567__A1
*752 ANTENNA__567__A2
*753 ANTENNA__568__A1
*754 ANTENNA__569__I
*755 ANTENNA__570__A1
*756 ANTENNA__570__A2
*757 ANTENNA__571__B
*758 ANTENNA__572__A1
*759 ANTENNA__572__A2
*760 ANTENNA__574__A1
*761 ANTENNA__574__A2
*762 ANTENNA__575__A1
*763 ANTENNA__575__A2
*764 ANTENNA__578__I
*765 ANTENNA__580__A1
*766 ANTENNA__580__A2
*767 ANTENNA__581__A2
*768 ANTENNA__581__B1
*769 ANTENNA__581__B2
*770 ANTENNA__581__C
*771 ANTENNA__582__B1
*772 ANTENNA__582__B2
*773 ANTENNA__583__A1
*774 ANTENNA__584__A1
*775 ANTENNA__584__A2
*776 ANTENNA__585__A1
*777 ANTENNA__586__I
*778 ANTENNA__587__A1
*779 ANTENNA__587__A2
*780 ANTENNA__587__B
*781 ANTENNA__588__A1
*782 ANTENNA__588__A2
*783 ANTENNA__589__A2
*784 ANTENNA__589__B1
*785 ANTENNA__589__C
*786 ANTENNA__590__B1
*787 ANTENNA__590__B2
*788 ANTENNA__591__A2
*789 ANTENNA__594__A2
*790 ANTENNA__595__A2
*791 ANTENNA__599__A2
*792 ANTENNA__600__A1
*793 ANTENNA__600__A2
*794 ANTENNA__600__B1
*795 ANTENNA__600__C
*796 ANTENNA__601__B2
*797 ANTENNA__602__A1
*798 ANTENNA__603__A1
*799 ANTENNA__605__A2
*800 ANTENNA__608__A1
*801 ANTENNA__608__A2
*802 ANTENNA__608__B1
*803 ANTENNA__608__C
*804 ANTENNA__609__B1
*805 ANTENNA__609__B2
*806 ANTENNA__612__A1
*807 ANTENNA__612__A2
*808 ANTENNA__617__A2
*809 ANTENNA__618__A1
*810 ANTENNA__618__A2
*811 ANTENNA__622__A2
*812 ANTENNA__623__A2
*813 ANTENNA__623__B1
*814 ANTENNA__623__B2
*815 ANTENNA__623__C
*816 ANTENNA__624__B2
*817 ANTENNA__627__A2
*818 ANTENNA__628__A1
*819 ANTENNA__631__A3
*820 ANTENNA__632__A2
*821 ANTENNA__632__B1
*822 ANTENNA__632__B2
*823 ANTENNA__632__C
*824 ANTENNA__633__B2
*825 ANTENNA__645__A2
*826 ANTENNA__646__A1
*827 ANTENNA__646__A2
*828 ANTENNA__646__B1
*829 ANTENNA__646__B2
*830 ANTENNA__646__C
*831 ANTENNA__647__B2
*832 ANTENNA__650__A1
*833 ANTENNA__651__A1
*834 ANTENNA__655__A3
*835 ANTENNA__656__A1
*836 ANTENNA__656__A2
*837 ANTENNA__656__B1
*838 ANTENNA__656__B2
*839 ANTENNA__656__C
*840 ANTENNA__657__A1
*841 ANTENNA__657__A2
*842 ANTENNA__658__A1
*843 ANTENNA__668__A1
*844 ANTENNA__668__A2
*845 ANTENNA__670__A1
*846 ANTENNA__670__A2
*847 ANTENNA__674__A1
*848 ANTENNA__674__A2
*849 ANTENNA__675__A1
*850 ANTENNA__675__A2
*851 ANTENNA__678__A1
*852 ANTENNA__678__A2
*853 ANTENNA__678__B1
*854 ANTENNA__678__B2
*855 ANTENNA__679__B
*856 ANTENNA__681__A1
*857 ANTENNA__681__A2
*858 ANTENNA__686__A1
*859 ANTENNA__686__A2
*860 ANTENNA__686__B2
*861 ANTENNA__687__B
*862 ANTENNA__689__A1
*863 ANTENNA__689__A2
*864 ANTENNA__689__B
*865 ANTENNA__691__A2
*866 ANTENNA__692__A2
*867 ANTENNA__698__A1
*868 ANTENNA__698__B2
*869 ANTENNA__699__B
*870 ANTENNA__701__A1
*871 ANTENNA__705__A1
*872 ANTENNA__707__CLK
*873 ANTENNA__708__CLK
*874 ANTENNA__709__CLK
*875 ANTENNA__710__CLK
*876 ANTENNA__711__CLK
*877 ANTENNA__712__CLK
*878 ANTENNA__713__CLK
*879 ANTENNA__714__CLK
*880 ANTENNA__715__CLK
*881 ANTENNA__716__CLK
*882 ANTENNA__717__CLK
*883 ANTENNA__718__CLK
*884 ANTENNA__719__CLK
*885 ANTENNA__720__CLK
*886 ANTENNA__721__CLK
*887 ANTENNA__722__CLK
*888 ANTENNA__723__CLK
*889 ANTENNA__724__CLK
*890 ANTENNA__725__CLK
*891 ANTENNA__726__CLK
*892 ANTENNA__727__CLK
*893 ANTENNA__728__CLK
*894 ANTENNA__729__CLK
*895 ANTENNA__730__CLK
*896 ANTENNA__731__CLK
*897 ANTENNA__732__CLK
*898 ANTENNA__733__CLK
*899 ANTENNA__734__CLK
*900 ANTENNA__735__CLK
*901 ANTENNA__736__CLK
*902 ANTENNA__737__CLK
*903 ANTENNA__738__CLK
*904 ANTENNA__739__CLK
*905 ANTENNA__740__CLK
*906 ANTENNA__741__CLK
*907 ANTENNA__742__CLK
*908 ANTENNA__743__CLK
*909 ANTENNA__744__CLK
*910 ANTENNA_clkbuf_0_clk_I
*911 ANTENNA_clkbuf_2_0__f_clk_I
*912 ANTENNA_clkbuf_2_1__f_clk_I
*913 ANTENNA_clkbuf_2_2__f_clk_I
*914 ANTENNA_clkbuf_2_3__f_clk_I
*915 ANTENNA_input10_I
*916 ANTENNA_input11_I
*917 ANTENNA_input12_I
*918 ANTENNA_input13_I
*919 ANTENNA_input14_I
*920 ANTENNA_input15_I
*921 ANTENNA_input16_I
*922 ANTENNA_input17_I
*923 ANTENNA_input1_I
*924 ANTENNA_input2_I
*925 ANTENNA_input3_I
*926 ANTENNA_input4_I
*927 ANTENNA_input5_I
*928 ANTENNA_input6_I
*929 ANTENNA_input7_I
*930 ANTENNA_input8_I
*931 ANTENNA_input9_I
*932 ANTENNA_output18_I
*933 ANTENNA_output21_I
*934 ANTENNA_output22_I
*935 FILLER_0_104
*936 FILLER_0_107
*937 FILLER_0_122
*938 FILLER_0_124
*939 FILLER_0_139
*940 FILLER_0_142
*941 FILLER_0_158
*942 FILLER_0_174
*943 FILLER_0_177
*944 FILLER_0_18
*945 FILLER_0_182
*946 FILLER_0_2
*947 FILLER_0_209
*948 FILLER_0_212
*949 FILLER_0_229
*950 FILLER_0_240
*951 FILLER_0_244
*952 FILLER_0_247
*953 FILLER_0_264
*954 FILLER_0_279
*955 FILLER_0_282
*956 FILLER_0_299
*957 FILLER_0_311
*958 FILLER_0_317
*959 FILLER_0_334
*960 FILLER_0_34
*961 FILLER_0_344
*962 FILLER_0_348
*963 FILLER_0_352
*964 FILLER_0_361
*965 FILLER_0_365
*966 FILLER_0_37
*967 FILLER_0_53
*968 FILLER_0_69
*969 FILLER_0_72
*970 FILLER_0_88
*971 FILLER_10_105
*972 FILLER_10_108
*973 FILLER_10_116
*974 FILLER_10_122
*975 FILLER_10_132
*976 FILLER_10_163
*977 FILLER_10_173
*978 FILLER_10_179
*979 FILLER_10_18
*980 FILLER_10_190
*981 FILLER_10_2
*982 FILLER_10_22
*983 FILLER_10_242
*984 FILLER_10_246
*985 FILLER_10_250
*986 FILLER_10_26
*987 FILLER_10_260
*988 FILLER_10_270
*989 FILLER_10_278
*990 FILLER_10_285
*991 FILLER_10_289
*992 FILLER_10_291
*993 FILLER_10_30
*994 FILLER_10_303
*995 FILLER_10_307
*996 FILLER_10_314
*997 FILLER_10_318
*998 FILLER_10_321
*999 FILLER_10_327
*1000 FILLER_10_334
*1001 FILLER_10_338
*1002 FILLER_10_34
*1003 FILLER_10_345
*1004 FILLER_10_352
*1005 FILLER_10_359
*1006 FILLER_10_365
*1007 FILLER_10_37
*1008 FILLER_10_45
*1009 FILLER_10_53
*1010 FILLER_10_63
*1011 FILLER_10_70
*1012 FILLER_10_72
*1013 FILLER_10_79
*1014 FILLER_10_83
*1015 FILLER_10_89
*1016 FILLER_10_99
*1017 FILLER_11_105
*1018 FILLER_11_112
*1019 FILLER_11_119
*1020 FILLER_11_126
*1021 FILLER_11_128
*1022 FILLER_11_131
*1023 FILLER_11_135
*1024 FILLER_11_141
*1025 FILLER_11_144
*1026 FILLER_11_147
*1027 FILLER_11_153
*1028 FILLER_11_160
*1029 FILLER_11_18
*1030 FILLER_11_2
*1031 FILLER_11_212
*1032 FILLER_11_215
*1033 FILLER_11_221
*1034 FILLER_11_223
*1035 FILLER_11_236
*1036 FILLER_11_243
*1037 FILLER_11_256
*1038 FILLER_11_258
*1039 FILLER_11_26
*1040 FILLER_11_269
*1041 FILLER_11_279
*1042 FILLER_11_28
*1043 FILLER_11_283
*1044 FILLER_11_286
*1045 FILLER_11_298
*1046 FILLER_11_31
*1047 FILLER_11_311
*1048 FILLER_11_318
*1049 FILLER_11_325
*1050 FILLER_11_327
*1051 FILLER_11_335
*1052 FILLER_11_345
*1053 FILLER_11_35
*1054 FILLER_11_352
*1055 FILLER_11_354
*1056 FILLER_11_357
*1057 FILLER_11_363
*1058 FILLER_11_365
*1059 FILLER_11_39
*1060 FILLER_11_70
*1061 FILLER_11_73
*1062 FILLER_11_83
*1063 FILLER_11_89
*1064 FILLER_11_91
*1065 FILLER_11_98
*1066 FILLER_12_104
*1067 FILLER_12_108
*1068 FILLER_12_114
*1069 FILLER_12_120
*1070 FILLER_12_124
*1071 FILLER_12_127
*1072 FILLER_12_131
*1073 FILLER_12_135
*1074 FILLER_12_139
*1075 FILLER_12_143
*1076 FILLER_12_149
*1077 FILLER_12_155
*1078 FILLER_12_159
*1079 FILLER_12_166
*1080 FILLER_12_176
*1081 FILLER_12_179
*1082 FILLER_12_189
*1083 FILLER_12_199
*1084 FILLER_12_2
*1085 FILLER_12_232
*1086 FILLER_12_243
*1087 FILLER_12_247
*1088 FILLER_12_250
*1089 FILLER_12_259
*1090 FILLER_12_266
*1091 FILLER_12_273
*1092 FILLER_12_304
*1093 FILLER_12_311
*1094 FILLER_12_318
*1095 FILLER_12_321
*1096 FILLER_12_331
*1097 FILLER_12_34
*1098 FILLER_12_340
*1099 FILLER_12_347
*1100 FILLER_12_354
*1101 FILLER_12_363
*1102 FILLER_12_365
*1103 FILLER_12_37
*1104 FILLER_12_43
*1105 FILLER_12_47
*1106 FILLER_12_80
*1107 FILLER_12_86
*1108 FILLER_12_92
*1109 FILLER_12_98
*1110 FILLER_13_101
*1111 FILLER_13_105
*1112 FILLER_13_109
*1113 FILLER_13_113
*1114 FILLER_13_117
*1115 FILLER_13_121
*1116 FILLER_13_125
*1117 FILLER_13_129
*1118 FILLER_13_133
*1119 FILLER_13_137
*1120 FILLER_13_141
*1121 FILLER_13_144
*1122 FILLER_13_175
*1123 FILLER_13_187
*1124 FILLER_13_194
*1125 FILLER_13_196
*1126 FILLER_13_2
*1127 FILLER_13_205
*1128 FILLER_13_212
*1129 FILLER_13_215
*1130 FILLER_13_224
*1131 FILLER_13_234
*1132 FILLER_13_244
*1133 FILLER_13_246
*1134 FILLER_13_276
*1135 FILLER_13_283
*1136 FILLER_13_286
*1137 FILLER_13_296
*1138 FILLER_13_302
*1139 FILLER_13_306
*1140 FILLER_13_312
*1141 FILLER_13_322
*1142 FILLER_13_326
*1143 FILLER_13_333
*1144 FILLER_13_34
*1145 FILLER_13_343
*1146 FILLER_13_347
*1147 FILLER_13_354
*1148 FILLER_13_357
*1149 FILLER_13_363
*1150 FILLER_13_365
*1151 FILLER_13_42
*1152 FILLER_13_46
*1153 FILLER_13_50
*1154 FILLER_13_54
*1155 FILLER_13_58
*1156 FILLER_13_62
*1157 FILLER_13_66
*1158 FILLER_13_70
*1159 FILLER_13_73
*1160 FILLER_13_75
*1161 FILLER_13_78
*1162 FILLER_13_82
*1163 FILLER_13_86
*1164 FILLER_13_89
*1165 FILLER_13_93
*1166 FILLER_13_97
*1167 FILLER_14_100
*1168 FILLER_14_102
*1169 FILLER_14_105
*1170 FILLER_14_108
*1171 FILLER_14_111
*1172 FILLER_14_115
*1173 FILLER_14_119
*1174 FILLER_14_123
*1175 FILLER_14_129
*1176 FILLER_14_133
*1177 FILLER_14_137
*1178 FILLER_14_141
*1179 FILLER_14_145
*1180 FILLER_14_149
*1181 FILLER_14_152
*1182 FILLER_14_156
*1183 FILLER_14_160
*1184 FILLER_14_164
*1185 FILLER_14_171
*1186 FILLER_14_173
*1187 FILLER_14_176
*1188 FILLER_14_179
*1189 FILLER_14_2
*1190 FILLER_14_209
*1191 FILLER_14_217
*1192 FILLER_14_221
*1193 FILLER_14_227
*1194 FILLER_14_234
*1195 FILLER_14_238
*1196 FILLER_14_240
*1197 FILLER_14_247
*1198 FILLER_14_250
*1199 FILLER_14_256
*1200 FILLER_14_263
*1201 FILLER_14_270
*1202 FILLER_14_283
*1203 FILLER_14_290
*1204 FILLER_14_296
*1205 FILLER_14_302
*1206 FILLER_14_306
*1207 FILLER_14_308
*1208 FILLER_14_316
*1209 FILLER_14_318
*1210 FILLER_14_321
*1211 FILLER_14_326
*1212 FILLER_14_330
*1213 FILLER_14_332
*1214 FILLER_14_338
*1215 FILLER_14_34
*1216 FILLER_14_346
*1217 FILLER_14_353
*1218 FILLER_14_357
*1219 FILLER_14_363
*1220 FILLER_14_365
*1221 FILLER_14_37
*1222 FILLER_14_69
*1223 FILLER_14_72
*1224 FILLER_14_76
*1225 FILLER_14_80
*1226 FILLER_14_84
*1227 FILLER_14_88
*1228 FILLER_14_92
*1229 FILLER_14_96
*1230 FILLER_15_101
*1231 FILLER_15_105
*1232 FILLER_15_109
*1233 FILLER_15_113
*1234 FILLER_15_117
*1235 FILLER_15_120
*1236 FILLER_15_126
*1237 FILLER_15_130
*1238 FILLER_15_134
*1239 FILLER_15_137
*1240 FILLER_15_141
*1241 FILLER_15_144
*1242 FILLER_15_146
*1243 FILLER_15_149
*1244 FILLER_15_153
*1245 FILLER_15_157
*1246 FILLER_15_161
*1247 FILLER_15_165
*1248 FILLER_15_168
*1249 FILLER_15_199
*1250 FILLER_15_2
*1251 FILLER_15_206
*1252 FILLER_15_210
*1253 FILLER_15_212
*1254 FILLER_15_215
*1255 FILLER_15_224
*1256 FILLER_15_226
*1257 FILLER_15_234
*1258 FILLER_15_238
*1259 FILLER_15_246
*1260 FILLER_15_257
*1261 FILLER_15_264
*1262 FILLER_15_266
*1263 FILLER_15_273
*1264 FILLER_15_280
*1265 FILLER_15_286
*1266 FILLER_15_292
*1267 FILLER_15_302
*1268 FILLER_15_309
*1269 FILLER_15_316
*1270 FILLER_15_323
*1271 FILLER_15_327
*1272 FILLER_15_337
*1273 FILLER_15_344
*1274 FILLER_15_351
*1275 FILLER_15_357
*1276 FILLER_15_364
*1277 FILLER_15_66
*1278 FILLER_15_70
*1279 FILLER_15_73
*1280 FILLER_15_89
*1281 FILLER_15_93
*1282 FILLER_15_97
*1283 FILLER_16_101
*1284 FILLER_16_105
*1285 FILLER_16_108
*1286 FILLER_16_118
*1287 FILLER_16_122
*1288 FILLER_16_126
*1289 FILLER_16_130
*1290 FILLER_16_134
*1291 FILLER_16_138
*1292 FILLER_16_142
*1293 FILLER_16_146
*1294 FILLER_16_150
*1295 FILLER_16_154
*1296 FILLER_16_157
*1297 FILLER_16_161
*1298 FILLER_16_165
*1299 FILLER_16_169
*1300 FILLER_16_172
*1301 FILLER_16_176
*1302 FILLER_16_179
*1303 FILLER_16_188
*1304 FILLER_16_190
*1305 FILLER_16_2
*1306 FILLER_16_200
*1307 FILLER_16_210
*1308 FILLER_16_221
*1309 FILLER_16_225
*1310 FILLER_16_235
*1311 FILLER_16_246
*1312 FILLER_16_250
*1313 FILLER_16_258
*1314 FILLER_16_264
*1315 FILLER_16_274
*1316 FILLER_16_287
*1317 FILLER_16_293
*1318 FILLER_16_300
*1319 FILLER_16_307
*1320 FILLER_16_316
*1321 FILLER_16_318
*1322 FILLER_16_321
*1323 FILLER_16_329
*1324 FILLER_16_338
*1325 FILLER_16_34
*1326 FILLER_16_346
*1327 FILLER_16_352
*1328 FILLER_16_356
*1329 FILLER_16_363
*1330 FILLER_16_365
*1331 FILLER_16_37
*1332 FILLER_17_105
*1333 FILLER_17_121
*1334 FILLER_17_125
*1335 FILLER_17_141
*1336 FILLER_17_144
*1337 FILLER_17_147
*1338 FILLER_17_149
*1339 FILLER_17_152
*1340 FILLER_17_156
*1341 FILLER_17_160
*1342 FILLER_17_164
*1343 FILLER_17_168
*1344 FILLER_17_172
*1345 FILLER_17_176
*1346 FILLER_17_180
*1347 FILLER_17_184
*1348 FILLER_17_188
*1349 FILLER_17_192
*1350 FILLER_17_199
*1351 FILLER_17_2
*1352 FILLER_17_201
*1353 FILLER_17_207
*1354 FILLER_17_209
*1355 FILLER_17_212
*1356 FILLER_17_215
*1357 FILLER_17_224
*1358 FILLER_17_257
*1359 FILLER_17_266
*1360 FILLER_17_273
*1361 FILLER_17_280
*1362 FILLER_17_286
*1363 FILLER_17_316
*1364 FILLER_17_326
*1365 FILLER_17_328
*1366 FILLER_17_337
*1367 FILLER_17_344
*1368 FILLER_17_352
*1369 FILLER_17_354
*1370 FILLER_17_357
*1371 FILLER_17_364
*1372 FILLER_17_66
*1373 FILLER_17_70
*1374 FILLER_17_73
*1375 FILLER_18_101
*1376 FILLER_18_105
*1377 FILLER_18_108
*1378 FILLER_18_140
*1379 FILLER_18_148
*1380 FILLER_18_152
*1381 FILLER_18_155
*1382 FILLER_18_159
*1383 FILLER_18_163
*1384 FILLER_18_167
*1385 FILLER_18_171
*1386 FILLER_18_173
*1387 FILLER_18_176
*1388 FILLER_18_179
*1389 FILLER_18_188
*1390 FILLER_18_192
*1391 FILLER_18_195
*1392 FILLER_18_2
*1393 FILLER_18_204
*1394 FILLER_18_206
*1395 FILLER_18_212
*1396 FILLER_18_222
*1397 FILLER_18_229
*1398 FILLER_18_235
*1399 FILLER_18_241
*1400 FILLER_18_245
*1401 FILLER_18_247
*1402 FILLER_18_250
*1403 FILLER_18_260
*1404 FILLER_18_270
*1405 FILLER_18_274
*1406 FILLER_18_305
*1407 FILLER_18_307
*1408 FILLER_18_313
*1409 FILLER_18_317
*1410 FILLER_18_321
*1411 FILLER_18_326
*1412 FILLER_18_335
*1413 FILLER_18_34
*1414 FILLER_18_341
*1415 FILLER_18_347
*1416 FILLER_18_353
*1417 FILLER_18_359
*1418 FILLER_18_365
*1419 FILLER_18_37
*1420 FILLER_19_137
*1421 FILLER_19_141
*1422 FILLER_19_144
*1423 FILLER_19_160
*1424 FILLER_19_164
*1425 FILLER_19_168
*1426 FILLER_19_199
*1427 FILLER_19_2
*1428 FILLER_19_209
*1429 FILLER_19_215
*1430 FILLER_19_248
*1431 FILLER_19_257
*1432 FILLER_19_263
*1433 FILLER_19_267
*1434 FILLER_19_271
*1435 FILLER_19_275
*1436 FILLER_19_279
*1437 FILLER_19_283
*1438 FILLER_19_286
*1439 FILLER_19_289
*1440 FILLER_19_293
*1441 FILLER_19_297
*1442 FILLER_19_302
*1443 FILLER_19_306
*1444 FILLER_19_310
*1445 FILLER_19_316
*1446 FILLER_19_322
*1447 FILLER_19_326
*1448 FILLER_19_330
*1449 FILLER_19_334
*1450 FILLER_19_338
*1451 FILLER_19_342
*1452 FILLER_19_346
*1453 FILLER_19_350
*1454 FILLER_19_354
*1455 FILLER_19_357
*1456 FILLER_19_365
*1457 FILLER_19_66
*1458 FILLER_19_70
*1459 FILLER_19_73
*1460 FILLER_1_103
*1461 FILLER_1_107
*1462 FILLER_1_117
*1463 FILLER_1_133
*1464 FILLER_1_141
*1465 FILLER_1_144
*1466 FILLER_1_17
*1467 FILLER_1_175
*1468 FILLER_1_2
*1469 FILLER_1_206
*1470 FILLER_1_212
*1471 FILLER_1_215
*1472 FILLER_1_221
*1473 FILLER_1_25
*1474 FILLER_1_252
*1475 FILLER_1_283
*1476 FILLER_1_286
*1477 FILLER_1_316
*1478 FILLER_1_33
*1479 FILLER_1_334
*1480 FILLER_1_352
*1481 FILLER_1_354
*1482 FILLER_1_357
*1483 FILLER_1_364
*1484 FILLER_1_49
*1485 FILLER_1_51
*1486 FILLER_1_54
*1487 FILLER_1_70
*1488 FILLER_1_73
*1489 FILLER_20_101
*1490 FILLER_20_105
*1491 FILLER_20_108
*1492 FILLER_20_172
*1493 FILLER_20_176
*1494 FILLER_20_179
*1495 FILLER_20_182
*1496 FILLER_20_186
*1497 FILLER_20_190
*1498 FILLER_20_194
*1499 FILLER_20_2
*1500 FILLER_20_201
*1501 FILLER_20_205
*1502 FILLER_20_209
*1503 FILLER_20_217
*1504 FILLER_20_224
*1505 FILLER_20_228
*1506 FILLER_20_232
*1507 FILLER_20_234
*1508 FILLER_20_237
*1509 FILLER_20_241
*1510 FILLER_20_245
*1511 FILLER_20_247
*1512 FILLER_20_250
*1513 FILLER_20_253
*1514 FILLER_20_257
*1515 FILLER_20_261
*1516 FILLER_20_264
*1517 FILLER_20_268
*1518 FILLER_20_272
*1519 FILLER_20_278
*1520 FILLER_20_282
*1521 FILLER_20_286
*1522 FILLER_20_290
*1523 FILLER_20_292
*1524 FILLER_20_295
*1525 FILLER_20_299
*1526 FILLER_20_303
*1527 FILLER_20_309
*1528 FILLER_20_313
*1529 FILLER_20_317
*1530 FILLER_20_321
*1531 FILLER_20_324
*1532 FILLER_20_328
*1533 FILLER_20_332
*1534 FILLER_20_336
*1535 FILLER_20_34
*1536 FILLER_20_340
*1537 FILLER_20_344
*1538 FILLER_20_346
*1539 FILLER_20_349
*1540 FILLER_20_353
*1541 FILLER_20_357
*1542 FILLER_20_361
*1543 FILLER_20_365
*1544 FILLER_20_37
*1545 FILLER_21_137
*1546 FILLER_21_141
*1547 FILLER_21_144
*1548 FILLER_21_176
*1549 FILLER_21_186
*1550 FILLER_21_190
*1551 FILLER_21_194
*1552 FILLER_21_198
*1553 FILLER_21_2
*1554 FILLER_21_202
*1555 FILLER_21_206
*1556 FILLER_21_210
*1557 FILLER_21_212
*1558 FILLER_21_215
*1559 FILLER_21_218
*1560 FILLER_21_222
*1561 FILLER_21_226
*1562 FILLER_21_230
*1563 FILLER_21_234
*1564 FILLER_21_238
*1565 FILLER_21_242
*1566 FILLER_21_246
*1567 FILLER_21_250
*1568 FILLER_21_254
*1569 FILLER_21_258
*1570 FILLER_21_262
*1571 FILLER_21_266
*1572 FILLER_21_270
*1573 FILLER_21_274
*1574 FILLER_21_278
*1575 FILLER_21_282
*1576 FILLER_21_286
*1577 FILLER_21_289
*1578 FILLER_21_293
*1579 FILLER_21_297
*1580 FILLER_21_301
*1581 FILLER_21_305
*1582 FILLER_21_309
*1583 FILLER_21_313
*1584 FILLER_21_317
*1585 FILLER_21_321
*1586 FILLER_21_325
*1587 FILLER_21_329
*1588 FILLER_21_333
*1589 FILLER_21_337
*1590 FILLER_21_341
*1591 FILLER_21_345
*1592 FILLER_21_347
*1593 FILLER_21_350
*1594 FILLER_21_354
*1595 FILLER_21_357
*1596 FILLER_21_360
*1597 FILLER_21_364
*1598 FILLER_21_66
*1599 FILLER_21_70
*1600 FILLER_21_73
*1601 FILLER_22_101
*1602 FILLER_22_105
*1603 FILLER_22_108
*1604 FILLER_22_172
*1605 FILLER_22_176
*1606 FILLER_22_179
*1607 FILLER_22_187
*1608 FILLER_22_191
*1609 FILLER_22_194
*1610 FILLER_22_198
*1611 FILLER_22_2
*1612 FILLER_22_202
*1613 FILLER_22_206
*1614 FILLER_22_210
*1615 FILLER_22_214
*1616 FILLER_22_216
*1617 FILLER_22_219
*1618 FILLER_22_223
*1619 FILLER_22_227
*1620 FILLER_22_231
*1621 FILLER_22_235
*1622 FILLER_22_238
*1623 FILLER_22_242
*1624 FILLER_22_246
*1625 FILLER_22_250
*1626 FILLER_22_253
*1627 FILLER_22_257
*1628 FILLER_22_261
*1629 FILLER_22_265
*1630 FILLER_22_269
*1631 FILLER_22_273
*1632 FILLER_22_277
*1633 FILLER_22_281
*1634 FILLER_22_285
*1635 FILLER_22_289
*1636 FILLER_22_293
*1637 FILLER_22_297
*1638 FILLER_22_301