*SPEF "ieee 1481-1999"
*DESIGN "collatz"
*DATE "11:11:11 Fri 11 11, 1111"
*VENDOR "OpenRCX"
*PROGRAM "Parallel Extraction"
*VERSION "1.0"
*DESIGN_FLOW "NAME_SCOPE LOCAL" "PIN_CAP NONE"
*DIVIDER /
*DELIMITER :
*BUS_DELIMITER []
*T_UNIT 1 NS
*C_UNIT 1 PF
*R_UNIT 1 OHM
*L_UNIT 1 HENRY

*NAME_MAP
*1 bs
*2 clk
*3 co[0]
*4 co[10]
*5 co[11]
*6 co[12]
*7 co[13]
*8 co[14]
*9 co[15]
*10 co[1]
*11 co[2]
*12 co[3]
*13 co[4]
*14 co[5]
*15 co[6]
*16 co[7]
*17 co[8]
*18 co[9]
*19 st
*22 x[0]
*23 x[10]
*24 x[11]
*25 x[12]
*26 x[13]
*27 x[14]
*28 x[15]
*29 x[1]
*30 x[2]
*31 x[3]
*32 x[4]
*33 x[5]
*34 x[6]
*35 x[7]
*36 x[8]
*37 x[9]
*38 Datapath\.i\[0\]
*39 Datapath\.i\[10\]
*40 Datapath\.i\[11\]
*41 Datapath\.i\[12\]
*42 Datapath\.i\[13\]
*43 Datapath\.i\[14\]
*44 Datapath\.i\[15\]
*45 Datapath\.i\[1\]
*46 Datapath\.i\[2\]
*47 Datapath\.i\[3\]
*48 Datapath\.i\[4\]
*49 Datapath\.i\[5\]
*50 Datapath\.i\[6\]
*51 Datapath\.i\[7\]
*52 Datapath\.i\[8\]
*53 Datapath\.i\[9\]
*54 Datapath\.k\[0\]
*55 Datapath\.k\[10\]
*56 Datapath\.k\[11\]
*57 Datapath\.k\[12\]
*58 Datapath\.k\[13\]
*59 Datapath\.k\[14\]
*60 Datapath\.k\[15\]
*61 Datapath\.k\[16\]
*62 Datapath\.k\[17\]
*63 Datapath\.k\[18\]
*64 Datapath\.k\[19\]
*65 Datapath\.k\[1\]
*66 Datapath\.k\[2\]
*67 Datapath\.k\[3\]
*68 Datapath\.k\[4\]
*69 Datapath\.k\[5\]
*70 Datapath\.k\[6\]
*71 Datapath\.k\[7\]
*72 Datapath\.k\[8\]
*73 Datapath\.k\[9\]
*74 FSM\.CS\[0\]
*75 FSM\.CS\[1\]
*76 FSM\.NS\[0\]
*77 FSM\.NS\[1\]
*78 _000_
*79 _001_
*80 _002_
*81 _003_
*82 _004_
*83 _005_
*84 _006_
*85 _007_
*86 _008_
*87 _009_
*88 _010_
*89 _011_
*90 _012_
*91 _013_
*92 _014_
*93 _015_
*94 _016_
*95 _017_
*96 _018_
*97 _019_
*98 _020_
*99 _021_
*100 _022_
*101 _023_
*102 _024_
*103 _025_
*104 _026_
*105 _027_
*106 _028_
*107 _029_
*108 _030_
*109 _031_
*110 _032_
*111 _033_
*112 _034_
*113 _035_
*114 _036_
*115 _037_
*116 _038_
*117 _039_
*118 _040_
*119 _041_
*120 _042_
*121 _043_
*122 _044_
*123 _045_
*124 _046_
*125 _047_
*126 _048_
*127 _049_
*128 _050_
*129 _051_
*130 _052_
*131 _053_
*132 _054_
*133 _055_
*134 _056_
*135 _057_
*136 _058_
*137 _059_
*138 _060_
*139 _061_
*140 _062_
*141 _063_
*142 _064_
*143 _065_
*144 _066_
*145 _067_
*146 _068_
*147 _069_
*148 _070_
*149 _071_
*150 _072_
*151 _073_
*152 _074_
*153 _075_
*154 _076_
*155 _077_
*156 _078_
*157 _079_
*158 _080_
*159 _081_
*160 _082_
*161 _083_
*162 _084_
*163 _085_
*164 _086_
*165 _087_
*166 _088_
*167 _089_
*168 _090_
*169 _091_
*170 _092_
*171 _093_
*172 _094_
*173 _095_
*174 _096_
*175 _097_
*176 _098_
*177 _099_
*178 _100_
*179 _101_
*180 _102_
*181 _103_
*182 _104_
*183 _105_
*184 _106_
*185 _107_
*186 _108_
*187 _109_
*188 _110_
*189 _111_
*190 _112_
*191 _113_
*192 _114_
*193 _115_
*194 _116_
*195 _117_
*196 _118_
*197 _119_
*198 _120_
*199 _121_
*200 _122_
*201 _123_
*202 _124_
*203 _125_
*204 _126_
*205 _127_
*206 _128_
*207 _129_
*208 _130_
*209 _131_
*210 _132_
*211 _133_
*212 _134_
*213 _135_
*214 _136_
*215 _137_
*216 _138_
*217 _139_
*218 _140_
*219 _141_
*220 _142_
*221 _143_
*222 _144_
*223 _145_
*224 _146_
*225 _147_
*226 _148_
*227 _149_
*228 _150_
*229 _151_
*230 _152_
*231 _153_
*232 _154_
*233 _155_
*234 _156_
*235 _157_
*236 _158_
*237 _159_
*238 _160_
*239 _161_
*240 _162_
*241 _163_
*242 _164_
*243 _165_
*244 _166_
*245 _167_
*246 _168_
*247 _169_
*248 _170_
*249 _171_
*250 _172_
*251 _173_
*252 _174_
*253 _175_
*254 _176_
*255 _177_
*256 _178_
*257 _179_
*258 _180_
*259 _181_
*260 _182_
*261 _183_
*262 _184_
*263 _185_
*264 _186_
*265 _187_
*266 _188_
*267 _189_
*268 _190_
*269 _191_
*270 _192_
*271 _193_
*272 _194_
*273 _195_
*274 _196_
*275 _197_
*276 _198_
*277 _199_
*278 _200_
*279 _201_
*280 _202_
*281 _203_
*282 _204_
*283 _205_
*284 _206_
*285 _207_
*286 _208_
*287 _209_
*288 _210_
*289 _211_
*290 _212_
*291 _213_
*292 _214_
*293 _215_
*294 _216_
*295 _217_
*296 _218_
*297 _219_
*298 _220_
*299 _221_
*300 _222_
*301 _223_
*302 _224_
*303 _225_
*304 _226_
*305 _227_
*306 _228_
*307 _229_
*308 _230_
*309 _231_
*310 _232_
*311 _233_
*312 _234_
*313 _235_
*314 _236_
*315 _237_
*316 _238_
*317 _239_
*318 _240_
*319 _241_
*320 _242_
*321 _243_
*322 _244_
*323 _245_
*324 _246_
*325 _247_
*326 _248_
*327 _249_
*328 _250_
*329 _251_
*330 _252_
*331 _253_
*332 _254_
*333 _255_
*334 _256_
*335 _257_
*336 _258_
*337 _259_
*338 _260_
*339 _261_
*340 _262_
*341 _263_
*342 _264_
*343 _265_
*344 _266_
*345 _267_
*346 _268_
*347 _269_
*348 _270_
*349 _271_
*350 _272_
*351 _273_
*352 _274_
*353 _275_
*354 _276_
*355 _277_
*356 _278_
*357 _279_
*358 _280_
*359 _281_
*360 _282_
*361 _283_
*362 _284_
*363 _285_
*364 _286_
*365 _287_
*366 _288_
*367 _289_
*368 _290_
*369 _291_
*370 _292_
*371 _293_
*372 _294_
*373 _295_
*374 _296_
*375 _297_
*376 _298_
*377 _299_
*378 _300_
*379 _301_
*380 _302_
*381 _303_
*382 _304_
*383 _305_
*384 _306_
*385 _307_
*386 _308_
*387 _309_
*388 _310_
*389 _311_
*390 _312_
*391 _313_
*392 _314_
*393 _315_
*394 _316_
*395 _317_
*396 _318_
*397 _319_
*398 _320_
*399 _321_
*400 _322_
*401 _323_
*402 _324_
*403 _325_
*404 _326_
*405 _327_
*406 _328_
*407 _329_
*408 _330_
*409 _331_
*410 _332_
*411 _333_
*412 _334_
*413 _335_
*414 _336_
*415 _337_
*416 _338_
*417 _339_
*418 _340_
*419 _341_
*420 _342_
*421 _343_
*422 clknet_0_clk
*423 clknet_2_0__leaf_clk
*424 clknet_2_1__leaf_clk
*425 clknet_2_2__leaf_clk
*426 clknet_2_3__leaf_clk
*427 net1
*428 net10
*429 net11
*430 net12
*431 net13
*432 net14
*433 net15
*434 net16
*435 net17
*436 net18
*437 net19
*438 net2
*439 net20
*440 net21
*441 net22
*442 net23
*443 net24
*444 net25
*445 net26
*446 net27
*447 net28
*448 net29
*449 net3
*450 net30
*451 net31
*452 net32
*453 net33
*454 net34
*455 net4
*456 net5
*457 net6
*458 net7
*459 net8
*460 net9
*461 ANTENNA__346__I
*462 ANTENNA__347__A1
*463 ANTENNA__347__A2
*464 ANTENNA__348__I
*465 ANTENNA__350__A1
*466 ANTENNA__350__A2
*467 ANTENNA__351__I
*468 ANTENNA__353__A1
*469 ANTENNA__354__I
*470 ANTENNA__355__A1
*471 ANTENNA__355__A2
*472 ANTENNA__356__I
*473 ANTENNA__357__I
*474 ANTENNA__358__A1
*475 ANTENNA__358__A2
*476 ANTENNA__360__I
*477 ANTENNA__361__A1
*478 ANTENNA__361__A2
*479 ANTENNA__363__A1
*480 ANTENNA__363__A2
*481 ANTENNA__366__A1
*482 ANTENNA__366__A2
*483 ANTENNA__368__A1
*484 ANTENNA__368__A2
*485 ANTENNA__370__A1
*486 ANTENNA__372__A1
*487 ANTENNA__372__A2
*488 ANTENNA__373__A1
*489 ANTENNA__373__A2
*490 ANTENNA__375__I
*491 ANTENNA__376__A1
*492 ANTENNA__376__A2
*493 ANTENNA__378__A1
*494 ANTENNA__380__A1
*495 ANTENNA__382__A1
*496 ANTENNA__382__A2
*497 ANTENNA__384__A1
*498 ANTENNA__386__A1
*499 ANTENNA__386__A2
*500 ANTENNA__387__I
*501 ANTENNA__388__A1
*502 ANTENNA__389__I
*503 ANTENNA__390__I
*504 ANTENNA__391__A1
*505 ANTENNA__391__A2
*506 ANTENNA__391__B
*507 ANTENNA__392__A1
*508 ANTENNA__392__A2
*509 ANTENNA__392__B
*510 ANTENNA__394__A1
*511 ANTENNA__394__A2
*512 ANTENNA__394__A4
*513 ANTENNA__395__A1
*514 ANTENNA__395__A2
*515 ANTENNA__396__A1
*516 ANTENNA__397__A1
*517 ANTENNA__398__A2
*518 ANTENNA__398__A3
*519 ANTENNA__399__A1
*520 ANTENNA__399__A2
*521 ANTENNA__400__A2
*522 ANTENNA__400__A3
*523 ANTENNA__401__I
*524 ANTENNA__402__I
*525 ANTENNA__405__I
*526 ANTENNA__406__I
*527 ANTENNA__407__A1
*528 ANTENNA__407__A2
*529 ANTENNA__408__I
*530 ANTENNA__409__I
*531 ANTENNA__411__A2
*532 ANTENNA__413__A1
*533 ANTENNA__413__A2
*534 ANTENNA__414__I
*535 ANTENNA__415__I
*536 ANTENNA__416__A2
*537 ANTENNA__417__I
*538 ANTENNA__418__A2
*539 ANTENNA__418__A3
*540 ANTENNA__419__A1
*541 ANTENNA__419__A2
*542 ANTENNA__421__I
*543 ANTENNA__422__I
*544 ANTENNA__423__A1
*545 ANTENNA__423__A2
*546 ANTENNA__424__I
*547 ANTENNA__425__I
*548 ANTENNA__426__A1
*549 ANTENNA__426__A2
*550 ANTENNA__427__A1
*551 ANTENNA__427__A2
*552 ANTENNA__427__A3
*553 ANTENNA__427__A4
*554 ANTENNA__428__I
*555 ANTENNA__429__I
*556 ANTENNA__430__B
*557 ANTENNA__431__A1
*558 ANTENNA__431__A2
*559 ANTENNA__432__A1
*560 ANTENNA__432__A2
*561 ANTENNA__433__A1
*562 ANTENNA__433__A2
*563 ANTENNA__433__B
*564 ANTENNA__435__A1
*565 ANTENNA__435__A2
*566 ANTENNA__437__A1
*567 ANTENNA__437__A2
*568 ANTENNA__437__B2
*569 ANTENNA__438__I
*570 ANTENNA__439__A1
*571 ANTENNA__440__I
*572 ANTENNA__441__A1
*573 ANTENNA__441__A2
*574 ANTENNA__442__A2
*575 ANTENNA__442__B2
*576 ANTENNA__443__A1
*577 ANTENNA__443__A2
*578 ANTENNA__444__A1
*579 ANTENNA__444__A2
*580 ANTENNA__445__A1
*581 ANTENNA__445__A2
*582 ANTENNA__446__A1
*583 ANTENNA__447__A2
*584 ANTENNA__447__B
*585 ANTENNA__448__A2
*586 ANTENNA__451__A2
*587 ANTENNA__452__I
*588 ANTENNA__454__A1
*589 ANTENNA__454__A2
*590 ANTENNA__455__A2
*591 ANTENNA__457__A1
*592 ANTENNA__458__A2
*593 ANTENNA__458__A3
*594 ANTENNA__459__A1
*595 ANTENNA__459__B
*596 ANTENNA__460__A1
*597 ANTENNA__464__A2
*598 ANTENNA__465__A1
*599 ANTENNA__467__A2
*600 ANTENNA__469__A2
*601 ANTENNA__469__B
*602 ANTENNA__470__A1
*603 ANTENNA__471__A1
*604 ANTENNA__471__A2
*605 ANTENNA__472__A1
*606 ANTENNA__472__A2
*607 ANTENNA__472__A3
*608 ANTENNA__474__I
*609 ANTENNA__475__A2
*610 ANTENNA__476__I
*611 ANTENNA__477__A1
*612 ANTENNA__477__A2
*613 ANTENNA__479__A2
*614 ANTENNA__479__B
*615 ANTENNA__480__A2
*616 ANTENNA__481__A2
*617 ANTENNA__481__A3
*618 ANTENNA__482__A2
*619 ANTENNA__483__A1
*620 ANTENNA__484__A1
*621 ANTENNA__484__A2
*622 ANTENNA__487__A2
*623 ANTENNA__489__A1
*624 ANTENNA__489__A4
*625 ANTENNA__491__A2
*626 ANTENNA__492__A2
*627 ANTENNA__493__A2
*628 ANTENNA__494__A3
*629 ANTENNA__496__A3
*630 ANTENNA__497__A3
*631 ANTENNA__498__A1
*632 ANTENNA__498__B
*633 ANTENNA__499__A1
*634 ANTENNA__499__A2
*635 ANTENNA__500__A1
*636 ANTENNA__500__A2
*637 ANTENNA__501__I
*638 ANTENNA__502__A2
*639 ANTENNA__502__B1
*640 ANTENNA__502__B2
*641 ANTENNA__503__A1
*642 ANTENNA__503__A2
*643 ANTENNA__504__A1
*644 ANTENNA__504__A2
*645 ANTENNA__504__B1
*646 ANTENNA__504__B2
*647 ANTENNA__504__C
*648 ANTENNA__505__A2
*649 ANTENNA__505__B1
*650 ANTENNA__505__B2
*651 ANTENNA__505__C
*652 ANTENNA__506__A1
*653 ANTENNA__506__A2
*654 ANTENNA__507__A1
*655 ANTENNA__507__A2
*656 ANTENNA__508__A1
*657 ANTENNA__508__A2
*658 ANTENNA__509__A2
*659 ANTENNA__510__A1
*660 ANTENNA__510__A3
*661 ANTENNA__511__A2
*662 ANTENNA__511__A3
*663 ANTENNA__512__A2
*664 ANTENNA__512__B1
*665 ANTENNA__512__B2
*666 ANTENNA__513__A1
*667 ANTENNA__513__A2
*668 ANTENNA__514__A1
*669 ANTENNA__514__A2
*670 ANTENNA__515__A1
*671 ANTENNA__515__A2
*672 ANTENNA__515__A3
*673 ANTENNA__516__A1
*674 ANTENNA__516__A2
*675 ANTENNA__517__A1
*676 ANTENNA__517__A2
*677 ANTENNA__517__A3
*678 ANTENNA__518__A2
*679 ANTENNA__519__A2
*680 ANTENNA__519__B1
*681 ANTENNA__519__B2
*682 ANTENNA__519__C
*683 ANTENNA__520__B1
*684 ANTENNA__520__B2
*685 ANTENNA__521__A1
*686 ANTENNA__521__A2
*687 ANTENNA__521__B
*688 ANTENNA__522__A1
*689 ANTENNA__522__A2
*690 ANTENNA__523__A1
*691 ANTENNA__523__A2
*692 ANTENNA__524__I
*693 ANTENNA__525__A1
*694 ANTENNA__525__A2
*695 ANTENNA__527__A1
*696 ANTENNA__527__A2
*697 ANTENNA__528__A1
*698 ANTENNA__528__A2
*699 ANTENNA__529__A2
*700 ANTENNA__529__A3
*701 ANTENNA__530__B1
*702 ANTENNA__530__B2
*703 ANTENNA__530__C
*704 ANTENNA__531__I
*705 ANTENNA__532__B2
*706 ANTENNA__533__A1
*707 ANTENNA__533__A2
*708 ANTENNA__534__I
*709 ANTENNA__536__A2
*710 ANTENNA__537__A1
*711 ANTENNA__537__A2
*712 ANTENNA__537__B
*713 ANTENNA__538__A1
*714 ANTENNA__538__A2
*715 ANTENNA__539__A1
*716 ANTENNA__539__B1
*717 ANTENNA__539__B2
*718 ANTENNA__539__C
*719 ANTENNA__540__B2
*720 ANTENNA__541__A2
*721 ANTENNA__543__A1
*722 ANTENNA__543__B
*723 ANTENNA__544__A1
*724 ANTENNA__544__A2
*725 ANTENNA__546__A1
*726 ANTENNA__546__A2
*727 ANTENNA__550__A3
*728 ANTENNA__551__A1
*729 ANTENNA__551__B1
*730 ANTENNA__551__B2
*731 ANTENNA__551__C
*732 ANTENNA__552__I
*733 ANTENNA__553__B2
*734 ANTENNA__555__A1
*735 ANTENNA__555__A2
*736 ANTENNA__559__A1
*737 ANTENNA__561__A2
*738 ANTENNA__562__B1
*739 ANTENNA__562__B2
*740 ANTENNA__562__C
*741 ANTENNA__563__I
*742 ANTENNA__564__B2
*743 ANTENNA__565__A1
*744 ANTENNA__565__A2
*745 ANTENNA__568__A1
*746 ANTENNA__572__A1
*747 ANTENNA__572__A2
*748 ANTENNA__575__A1
*749 ANTENNA__575__A2
*750 ANTENNA__580__A2
*751 ANTENNA__581__A1
*752 ANTENNA__581__B1
*753 ANTENNA__581__B2
*754 ANTENNA__581__C
*755 ANTENNA__582__B2
*756 ANTENNA__584__A1
*757 ANTENNA__584__A2
*758 ANTENNA__587__B
*759 ANTENNA__589__A1
*760 ANTENNA__589__A2
*761 ANTENNA__589__B1
*762 ANTENNA__589__C
*763 ANTENNA__590__A2
*764 ANTENNA__590__B2
*765 ANTENNA__594__A1
*766 ANTENNA__595__A1
*767 ANTENNA__595__A2
*768 ANTENNA__596__A2
*769 ANTENNA__599__A2
*770 ANTENNA__600__A1
*771 ANTENNA__600__A2
*772 ANTENNA__600__B1
*773 ANTENNA__600__C
*774 ANTENNA__601__B1
*775 ANTENNA__601__B2
*776 ANTENNA__602__A1
*777 ANTENNA__602__A2
*778 ANTENNA__603__A2
*779 ANTENNA__604__A2
*780 ANTENNA__605__A2
*781 ANTENNA__606__A2
*782 ANTENNA__608__A1
*783 ANTENNA__608__A2
*784 ANTENNA__608__B1
*785 ANTENNA__608__C
*786 ANTENNA__609__B1
*787 ANTENNA__609__B2
*788 ANTENNA__612__A1
*789 ANTENNA__612__A2
*790 ANTENNA__614__A2
*791 ANTENNA__614__A3
*792 ANTENNA__616__I
*793 ANTENNA__617__A1
*794 ANTENNA__617__A2
*795 ANTENNA__618__A1
*796 ANTENNA__618__A2
*797 ANTENNA__619__A2
*798 ANTENNA__619__A3
*799 ANTENNA__620__A1
*800 ANTENNA__620__A2
*801 ANTENNA__621__A1
*802 ANTENNA__621__A2
*803 ANTENNA__622__A2
*804 ANTENNA__623__A1
*805 ANTENNA__623__A2
*806 ANTENNA__623__B1
*807 ANTENNA__623__C
*808 ANTENNA__624__B1
*809 ANTENNA__624__B2
*810 ANTENNA__625__I
*811 ANTENNA__626__A2
*812 ANTENNA__627__A1
*813 ANTENNA__627__A2
*814 ANTENNA__628__A1
*815 ANTENNA__628__A2
*816 ANTENNA__629__A1
*817 ANTENNA__629__A2
*818 ANTENNA__630__A1
*819 ANTENNA__630__A2
*820 ANTENNA__631__A2
*821 ANTENNA__631__A3
*822 ANTENNA__632__A1
*823 ANTENNA__632__A2
*824 ANTENNA__632__B1
*825 ANTENNA__632__C
*826 ANTENNA__633__B1
*827 ANTENNA__633__B2
*828 ANTENNA__634__A1
*829 ANTENNA__634__A2
*830 ANTENNA__636__A1
*831 ANTENNA__636__A2
*832 ANTENNA__637__I
*833 ANTENNA__639__A1
*834 ANTENNA__639__A2
*835 ANTENNA__640__A1
*836 ANTENNA__640__A2
*837 ANTENNA__641__A2
*838 ANTENNA__645__A2
*839 ANTENNA__646__A1
*840 ANTENNA__646__A2
*841 ANTENNA__646__B1
*842 ANTENNA__646__C
*843 ANTENNA__647__B1
*844 ANTENNA__647__B2
*845 ANTENNA__649__I
*846 ANTENNA__650__A1
*847 ANTENNA__650__A2
*848 ANTENNA__651__A1
*849 ANTENNA__652__I
*850 ANTENNA__653__A2
*851 ANTENNA__654__A2
*852 ANTENNA__654__A3
*853 ANTENNA__655__A3
*854 ANTENNA__656__A1
*855 ANTENNA__656__A2
*856 ANTENNA__656__B1
*857 ANTENNA__656__C
*858 ANTENNA__657__A1
*859 ANTENNA__657__A2
*860 ANTENNA__659__A2
*861 ANTENNA__665__A1
*862 ANTENNA__666__A2
*863 ANTENNA__670__A1
*864 ANTENNA__670__A2
*865 ANTENNA__675__A1
*866 ANTENNA__675__A2
*867 ANTENNA__677__A3
*868 ANTENNA__678__A1
*869 ANTENNA__678__A2
*870 ANTENNA__678__B1
*871 ANTENNA__678__B2
*872 ANTENNA__679__B
*873 ANTENNA__681__A1
*874 ANTENNA__681__A2
*875 ANTENNA__685__A2
*876 ANTENNA__686__A1
*877 ANTENNA__686__A2
*878 ANTENNA__686__B2
*879 ANTENNA__687__B
*880 ANTENNA__689__A1
*881 ANTENNA__689__A2
*882 ANTENNA__689__B
*883 ANTENNA__691__A2
*884 ANTENNA__692__A2
*885 ANTENNA__697__A2
*886 ANTENNA__698__A1
*887 ANTENNA__698__B2
*888 ANTENNA__699__B
*889 ANTENNA__701__A1
*890 ANTENNA__703__A2
*891 ANTENNA__705__A1
*892 ANTENNA__707__CLK
*893 ANTENNA__708__CLK
*894 ANTENNA__709__CLK
*895 ANTENNA__710__CLK
*896 ANTENNA__711__CLK
*897 ANTENNA__712__CLK
*898 ANTENNA__713__CLK
*899 ANTENNA__714__CLK
*900 ANTENNA__715__CLK
*901 ANTENNA__716__CLK
*902 ANTENNA__717__CLK
*903 ANTENNA__718__CLK
*904 ANTENNA__719__CLK
*905 ANTENNA__720__CLK
*906 ANTENNA__721__CLK
*907 ANTENNA__722__CLK
*908 ANTENNA__723__CLK
*909 ANTENNA__724__CLK
*910 ANTENNA__725__CLK
*911 ANTENNA__726__CLK
*912 ANTENNA__727__CLK
*913 ANTENNA__728__CLK
*914 ANTENNA__729__CLK
*915 ANTENNA__730__CLK
*916 ANTENNA__731__CLK
*917 ANTENNA__732__CLK
*918 ANTENNA__733__CLK
*919 ANTENNA__734__CLK
*920 ANTENNA__735__CLK
*921 ANTENNA__736__CLK
*922 ANTENNA__737__CLK
*923 ANTENNA__738__CLK
*924 ANTENNA__739__CLK
*925 ANTENNA__740__CLK
*926 ANTENNA__741__CLK
*927 ANTENNA__742__CLK
*928 ANTENNA__743__CLK
*929 ANTENNA__744__CLK
*930 ANTENNA__744__D
*931 ANTENNA_clkbuf_0_clk_I
*932 ANTENNA_clkbuf_2_0__f_clk_I
*933 ANTENNA_clkbuf_2_1__f_clk_I
*934 ANTENNA_clkbuf_2_2__f_clk_I
*935 ANTENNA_clkbuf_2_3__f_clk_I
*936 ANTENNA_input10_I
*937 ANTENNA_input11_I
*938 ANTENNA_input12_I
*939 ANTENNA_input13_I
*940 ANTENNA_input14_I
*941 ANTENNA_input15_I
*942 ANTENNA_input16_I
*943 ANTENNA_input17_I
*944 ANTENNA_input1_I
*945 ANTENNA_input2_I
*946 ANTENNA_input3_I
*947 ANTENNA_input4_I
*948 ANTENNA_input5_I
*949 ANTENNA_input6_I
*950 ANTENNA_input7_I
*951 ANTENNA_input8_I
*952 ANTENNA_input9_I
*953 ANTENNA_output18_I
*954 ANTENNA_output26_I
*955 ANTENNA_output27_I
*956 FILLER_0_104
*957 FILLER_0_107
*958 FILLER_0_121
*959 FILLER_0_139
*960 FILLER_0_142
*961 FILLER_0_149
*962 FILLER_0_156
*963 FILLER_0_174
*964 FILLER_0_177
*965 FILLER_0_195
*966 FILLER_0_2
*967 FILLER_0_203
*968 FILLER_0_207
*969 FILLER_0_209
*970 FILLER_0_212
*971 FILLER_0_227
*972 FILLER_0_243
*973 FILLER_0_247
*974 FILLER_0_262
*975 FILLER_0_278
*976 FILLER_0_28
*977 FILLER_0_282
*978 FILLER_0_297
*979 FILLER_0_313
*980 FILLER_0_317
*981 FILLER_0_332
*982 FILLER_0_34
*983 FILLER_0_348
*984 FILLER_0_352
*985 FILLER_0_355
*986 FILLER_0_357
*987 FILLER_0_364
*988 FILLER_0_37
*989 FILLER_0_51
*990 FILLER_0_69
*991 FILLER_0_72
*992 FILLER_0_86
*993 FILLER_10_105
*994 FILLER_10_108
*995 FILLER_10_115
*996 FILLER_10_117
*997 FILLER_10_124
*998 FILLER_10_134
*999 FILLER_10_138
*1000 FILLER_10_147
*1001 FILLER_10_151
*1002 FILLER_10_158
*1003 FILLER_10_167
*1004 FILLER_10_176
*1005 FILLER_10_179
*1006 FILLER_10_189
*1007 FILLER_10_193
*1008 FILLER_10_195
*1009 FILLER_10_2
*1010 FILLER_10_205
*1011 FILLER_10_212
*1012 FILLER_10_221
*1013 FILLER_10_228
*1014 FILLER_10_235
*1015 FILLER_10_239
*1016 FILLER_10_246
*1017 FILLER_10_250
*1018 FILLER_10_256
*1019 FILLER_10_263
*1020 FILLER_10_267
*1021 FILLER_10_269
*1022 FILLER_10_275
*1023 FILLER_10_282
*1024 FILLER_10_286
*1025 FILLER_10_288
*1026 FILLER_10_318
*1027 FILLER_10_32
*1028 FILLER_10_321
*1029 FILLER_10_330
*1030 FILLER_10_34
*1031 FILLER_10_340
*1032 FILLER_10_344
*1033 FILLER_10_350
*1034 FILLER_10_354
*1035 FILLER_10_358
*1036 FILLER_10_362
*1037 FILLER_10_37
*1038 FILLER_10_49
*1039 FILLER_10_59
*1040 FILLER_10_61
*1041 FILLER_10_64
*1042 FILLER_10_77
*1043 FILLER_10_90
*1044 FILLER_10_94
*1045 FILLER_11_140
*1046 FILLER_11_144
*1047 FILLER_11_15
*1048 FILLER_11_150
*1049 FILLER_11_157
*1050 FILLER_11_190
*1051 FILLER_11_2
*1052 FILLER_11_201
*1053 FILLER_11_211
*1054 FILLER_11_215
*1055 FILLER_11_221
*1056 FILLER_11_25
*1057 FILLER_11_254
*1058 FILLER_11_260
*1059 FILLER_11_266
*1060 FILLER_11_272
*1061 FILLER_11_276
*1062 FILLER_11_283
*1063 FILLER_11_286
*1064 FILLER_11_289
*1065 FILLER_11_293
*1066 FILLER_11_297
*1067 FILLER_11_301
*1068 FILLER_11_303
*1069 FILLER_11_308
*1070 FILLER_11_31
*1071 FILLER_11_312
*1072 FILLER_11_316
*1073 FILLER_11_320
*1074 FILLER_11_324
*1075 FILLER_11_329
*1076 FILLER_11_333
*1077 FILLER_11_337
*1078 FILLER_11_343
*1079 FILLER_11_347
*1080 FILLER_11_351
*1081 FILLER_11_357
*1082 FILLER_11_360
*1083 FILLER_11_362
*1084 FILLER_11_365
*1085 FILLER_11_40
*1086 FILLER_11_42
*1087 FILLER_11_45
*1088 FILLER_11_55
*1089 FILLER_11_57
*1090 FILLER_11_65
*1091 FILLER_11_67
*1092 FILLER_11_7
*1093 FILLER_11_70
*1094 FILLER_11_73
*1095 FILLER_11_82
*1096 FILLER_11_88
*1097 FILLER_12_10
*1098 FILLER_12_102
*1099 FILLER_12_108
*1100 FILLER_12_112
*1101 FILLER_12_124
*1102 FILLER_12_134
*1103 FILLER_12_143
*1104 FILLER_12_151
*1105 FILLER_12_155
*1106 FILLER_12_161
*1107 FILLER_12_171
*1108 FILLER_12_173
*1109 FILLER_12_176
*1110 FILLER_12_179
*1111 FILLER_12_18
*1112 FILLER_12_185
*1113 FILLER_12_192
*1114 FILLER_12_194
*1115 FILLER_12_2
*1116 FILLER_12_202
*1117 FILLER_12_204
*1118 FILLER_12_213
*1119 FILLER_12_219
*1120 FILLER_12_229
*1121 FILLER_12_236
*1122 FILLER_12_243
*1123 FILLER_12_247
*1124 FILLER_12_250
*1125 FILLER_12_255
*1126 FILLER_12_26
*1127 FILLER_12_261
*1128 FILLER_12_267
*1129 FILLER_12_273
*1130 FILLER_12_279
*1131 FILLER_12_283
*1132 FILLER_12_287
*1133 FILLER_12_291
*1134 FILLER_12_295
*1135 FILLER_12_299
*1136 FILLER_12_303
*1137 FILLER_12_307
*1138 FILLER_12_311
*1139 FILLER_12_315
*1140 FILLER_12_321
*1141 FILLER_12_324
*1142 FILLER_12_328
*1143 FILLER_12_34
*1144 FILLER_12_360
*1145 FILLER_12_364
*1146 FILLER_12_37
*1147 FILLER_12_44
*1148 FILLER_12_48
*1149 FILLER_12_58
*1150 FILLER_12_68
*1151 FILLER_12_72
*1152 FILLER_13_103
*1153 FILLER_13_110
*1154 FILLER_13_114
*1155 FILLER_13_122
*1156 FILLER_13_131
*1157 FILLER_13_135
*1158 FILLER_13_141
*1159 FILLER_13_144
*1160 FILLER_13_146
*1161 FILLER_13_152
*1162 FILLER_13_159
*1163 FILLER_13_166
*1164 FILLER_13_173
*1165 FILLER_13_177
*1166 FILLER_13_187
*1167 FILLER_13_193
*1168 FILLER_13_2
*1169 FILLER_13_203
*1170 FILLER_13_210
*1171 FILLER_13_212
*1172 FILLER_13_215
*1173 FILLER_13_218
*1174 FILLER_13_228
*1175 FILLER_13_235
*1176 FILLER_13_242
*1177 FILLER_13_248
*1178 FILLER_13_252
*1179 FILLER_13_256
*1180 FILLER_13_260
*1181 FILLER_13_264
*1182 FILLER_13_268
*1183 FILLER_13_272
*1184 FILLER_13_274
*1185 FILLER_13_277
*1186 FILLER_13_281
*1187 FILLER_13_283
*1188 FILLER_13_286
*1189 FILLER_13_289
*1190 FILLER_13_293
*1191 FILLER_13_297
*1192 FILLER_13_301
*1193 FILLER_13_305
*1194 FILLER_13_309
*1195 FILLER_13_33
*1196 FILLER_13_341
*1197 FILLER_13_349
*1198 FILLER_13_353
*1199 FILLER_13_357
*1200 FILLER_13_365
*1201 FILLER_13_41
*1202 FILLER_13_48
*1203 FILLER_13_56
*1204 FILLER_13_63
*1205 FILLER_13_70
*1206 FILLER_13_73
*1207 FILLER_13_84
*1208 FILLER_13_86
*1209 FILLER_13_89
*1210 FILLER_13_96
*1211 FILLER_14_105
*1212 FILLER_14_108
*1213 FILLER_14_117
*1214 FILLER_14_12
*1215 FILLER_14_127
*1216 FILLER_14_135
*1217 FILLER_14_144
*1218 FILLER_14_154
*1219 FILLER_14_158
*1220 FILLER_14_16
*1221 FILLER_14_164
*1222 FILLER_14_173
*1223 FILLER_14_179
*1224 FILLER_14_188
*1225 FILLER_14_2
*1226 FILLER_14_221
*1227 FILLER_14_23
*1228 FILLER_14_230
*1229 FILLER_14_236
*1230 FILLER_14_240
*1231 FILLER_14_244
*1232 FILLER_14_250
*1233 FILLER_14_253
*1234 FILLER_14_257
*1235 FILLER_14_261
*1236 FILLER_14_265
*1237 FILLER_14_271
*1238 FILLER_14_275
*1239 FILLER_14_279
*1240 FILLER_14_283
*1241 FILLER_14_287
*1242 FILLER_14_291
*1243 FILLER_14_293
*1244 FILLER_14_296
*1245 FILLER_14_31
*1246 FILLER_14_312
*1247 FILLER_14_316
*1248 FILLER_14_318
*1249 FILLER_14_321
*1250 FILLER_14_353
*1251 FILLER_14_361
*1252 FILLER_14_365
*1253 FILLER_14_37
*1254 FILLER_14_44
*1255 FILLER_14_46
*1256 FILLER_14_49
*1257 FILLER_14_56
*1258 FILLER_14_63
*1259 FILLER_14_94
*1260 FILLER_14_98
*1261 FILLER_15_104
*1262 FILLER_15_112
*1263 FILLER_15_116
*1264 FILLER_15_126
*1265 FILLER_15_136
*1266 FILLER_15_138
*1267 FILLER_15_141
*1268 FILLER_15_144
*1269 FILLER_15_150
*1270 FILLER_15_16
*1271 FILLER_15_160
*1272 FILLER_15_166
*1273 FILLER_15_175
*1274 FILLER_15_184
*1275 FILLER_15_196
*1276 FILLER_15_2
*1277 FILLER_15_202
*1278 FILLER_15_209
*1279 FILLER_15_215
*1280 FILLER_15_220
*1281 FILLER_15_224
*1282 FILLER_15_228
*1283 FILLER_15_23
*1284 FILLER_15_232
*1285 FILLER_15_236
*1286 FILLER_15_240
*1287 FILLER_15_244
*1288 FILLER_15_248
*1289 FILLER_15_252
*1290 FILLER_15_256
*1291 FILLER_15_260
*1292 FILLER_15_264
*1293 FILLER_15_268
*1294 FILLER_15_272
*1295 FILLER_15_276
*1296 FILLER_15_280
*1297 FILLER_15_286
*1298 FILLER_15_30
*1299 FILLER_15_350
*1300 FILLER_15_354
*1301 FILLER_15_357
*1302 FILLER_15_365
*1303 FILLER_15_37
*1304 FILLER_15_47
*1305 FILLER_15_49
*1306 FILLER_15_57
*1307 FILLER_15_68
*1308 FILLER_15_70
*1309 FILLER_15_73
*1310 FILLER_15_75
*1311 FILLER_15_81
*1312 FILLER_15_88
*1313 FILLER_15_9
*1314 FILLER_15_95
*1315 FILLER_16_105
*1316 FILLER_16_108
*1317 FILLER_16_115
*1318 FILLER_16_12
*1319 FILLER_16_122
*1320 FILLER_16_130
*1321 FILLER_16_137
*1322 FILLER_16_145
*1323 FILLER_16_152
*1324 FILLER_16_158
*1325 FILLER_16_165
*1326 FILLER_16_174
*1327 FILLER_16_176
*1328 FILLER_16_179
*1329 FILLER_16_187
*1330 FILLER_16_19
*1331 FILLER_16_193
*1332 FILLER_16_197
*1333 FILLER_16_2
*1334 FILLER_16_201
*1335 FILLER_16_204
*1336 FILLER_16_208
*1337 FILLER_16_211
*1338 FILLER_16_215
*1339 FILLER_16_221
*1340 FILLER_16_225
*1341 FILLER_16_229
*1342 FILLER_16_233
*1343 FILLER_16_237
*1344 FILLER_16_241
*1345 FILLER_16_247
*1346 FILLER_16_250
*1347 FILLER_16_253
*1348 FILLER_16_257
*1349 FILLER_16_26
*1350 FILLER_16_289
*1351 FILLER_16_305
*1352 FILLER_16_313
*1353 FILLER_16_317
*1354 FILLER_16_321
*1355 FILLER_16_34
*1356 FILLER_16_353
*1357 FILLER_16_361
*1358 FILLER_16_365
*1359 FILLER_16_37
*1360 FILLER_16_44
*1361 FILLER_16_5
*1362 FILLER_16_53
*1363 FILLER_16_84
*1364 FILLER_16_91
*1365 FILLER_16_98
*1366 FILLER_17_104
*1367 FILLER_17_116
*1368 FILLER_17_126
*1369 FILLER_17_128
*1370 FILLER_17_131
*1371 FILLER_17_138
*1372 FILLER_17_144
*1373 FILLER_17_149
*1374 FILLER_17_156
*1375 FILLER_17_16
*1376 FILLER_17_160
*1377 FILLER_17_162
*1378 FILLER_17_168
*1379 FILLER_17_172
*1380 FILLER_17_175
*1381 FILLER_17_177
*1382 FILLER_17_180
*1383 FILLER_17_184
*1384 FILLER_17_188
*1385 FILLER_17_192
*1386 FILLER_17_196
*1387 FILLER_17_2
*1388 FILLER_17_200
*1389 FILLER_17_204
*1390 FILLER_17_207
*1391 FILLER_17_211
*1392 FILLER_17_215
*1393 FILLER_17_218
*1394 FILLER_17_222
*1395 FILLER_17_226
*1396 FILLER_17_230
*1397 FILLER_17_234
*1398 FILLER_17_238
*1399 FILLER_17_24
*1400 FILLER_17_270
*1401 FILLER_17_278
*1402 FILLER_17_282
*1403 FILLER_17_286
*1404 FILLER_17_31
*1405 FILLER_17_350
*1406 FILLER_17_354
*1407 FILLER_17_357
*1408 FILLER_17_365
*1409 FILLER_17_38
*1410 FILLER_17_42
*1411 FILLER_17_48
*1412 FILLER_17_52
*1413 FILLER_17_59
*1414 FILLER_17_66
*1415 FILLER_17_70
*1416 FILLER_17_73
*1417 FILLER_17_76
*1418 FILLER_17_83
*1419 FILLER_17_87
*1420 FILLER_17_9
*1421 FILLER_17_97
*1422 FILLER_18_105
*1423 FILLER_18_108
*1424 FILLER_18_110
*1425 FILLER_18_116
*1426 FILLER_18_12
*1427 FILLER_18_123
*1428 FILLER_18_127
*1429 FILLER_18_133
*1430 FILLER_18_137
*1431 FILLER_18_140
*1432 FILLER_18_142
*1433 FILLER_18_145
*1434 FILLER_18_151
*1435 FILLER_18_155
*1436 FILLER_18_159
*1437 FILLER_18_16
*1438 FILLER_18_163
*1439 FILLER_18_165
*1440 FILLER_18_168
*1441 FILLER_18_172
*1442 FILLER_18_176
*1443 FILLER_18_179
*1444 FILLER_18_182
*1445 FILLER_18_186
*1446 FILLER_18_188
*1447 FILLER_18_191
*1448 FILLER_18_195
*1449 FILLER_18_197
*1450 FILLER_18_2
*1451 FILLER_18_20
*1452 FILLER_18_200
*1453 FILLER_18_204
*1454 FILLER_18_207
*1455 FILLER_18_223
*1456 FILLER_18_229
*1457 FILLER_18_245
*1458 FILLER_18_247
*1459 FILLER_18_250
*1460 FILLER_18_26
*1461 FILLER_18_28
*1462 FILLER_18_314
*1463 FILLER_18_318
*1464 FILLER_18_321
*1465 FILLER_18_34
*1466 FILLER_18_353
*1467 FILLER_18_361
*1468 FILLER_18_365
*1469 FILLER_18_37
*1470 FILLER_18_40
*1471 FILLER_18_47
*1472 FILLER_18_51
*1473 FILLER_18_57
*1474 FILLER_18_66
*1475 FILLER_18_8
*1476 FILLER_18_97
*1477 FILLER_19_105
*1478 FILLER_19_111
*1479 FILLER_19_117
*1480 FILLER_19_121
*1481 FILLER_19_125
*1482 FILLER_19_129
*1483 FILLER_19_13
*1484 FILLER_19_131
*1485 FILLER_19_134
*1486 FILLER_19_138
*1487 FILLER_19_144
*1488 FILLER_19_147
*1489 FILLER_19_149
*1490 FILLER_19_152
*1491 FILLER_19_156
*1492 FILLER_19_160
*1493 FILLER_19_162
*1494 FILLER_19_165
*1495 FILLER_19_169
*1496 FILLER_19_17
*1497 FILLER_19_173
*1498 FILLER_19_177
*1499 FILLER_19_179
*1500 FILLER_19_182
*1501 FILLER_19_186
*1502 FILLER_19_190
*1503 FILLER_19_194
*1504 FILLER_19_2
*1505 FILLER_19_21
*1506 FILLER_19_210
*1507 FILLER_19_212
*1508 FILLER_19_215
*1509 FILLER_19_25
*1510 FILLER_19_279
*1511 FILLER_19_283
*1512 FILLER_19_286
*1513 FILLER_19_29
*1514 FILLER_19_33
*1515 FILLER_19_350
*1516 FILLER_19_354
*1517 FILLER_19_357
*1518 FILLER_19_365
*1519 FILLER_19_37
*1520 FILLER_19_41
*1521 FILLER_19_48
*1522 FILLER_19_5
*1523 FILLER_19_50
*1524 FILLER_19_56
*1525 FILLER_19_63
*1526 FILLER_19_70
*1527 FILLER_19_73
*1528 FILLER_19_79
*1529 FILLER_19_88
*1530 FILLER_19_9
*1531 FILLER_19_94
*1532 FILLER_19_98
*1533 FILLER_1_109
*1534 FILLER_1_13
*1535 FILLER_1_140
*1536 FILLER_1_144
*1537 FILLER_1_158
*1538 FILLER_1_160
*1539 FILLER_1_190
*1540 FILLER_1_2
*1541 FILLER_1_206
*1542 FILLER_1_212
*1543 FILLER_1_215
*1544 FILLER_1_245
*1545 FILLER_1_249
*1546 FILLER_1_265
*1547 FILLER_1_275
*1548 FILLER_1_283
*1549 FILLER_1_286
*1550 FILLER_1_293
*1551 FILLER_1_295
*1552 FILLER_1_325
*1553 FILLER_1_341
*1554 FILLER_1_349
*1555 FILLER_1_353
*1556 FILLER_1_357
*1557 FILLER_1_364
*1558 FILLER_1_43
*1559 FILLER_1_52
*1560 FILLER_1_70
*1561 FILLER_1_73
*1562 FILLER_1_78
*1563 FILLER_1_9
*1564 FILLER_20_10
*1565 FILLER_20_103
*1566 FILLER_20_105
*1567 FILLER_20_108
*1568 FILLER_20_111
*1569 FILLER_20_113
*1570 FILLER_20_116
*1571 FILLER_20_120
*1572 FILLER_20_124
*1573 FILLER_20_128
*1574 FILLER_20_132
*1575 FILLER_20_134
*1576 FILLER_20_137
*1577 FILLER_20_14
*1578 FILLER_20_141
*1579 FILLER_20_145
*1580 FILLER_20_151
*1581 FILLER_20_155
*1582 FILLER_20_159
*1583 FILLER_20_163
*1584 FILLER_20_167
*1585 FILLER_20_171
*1586 FILLER_20_175
*1587 FILLER_20_179
*1588 FILLER_20_18
*1589 FILLER_20_182
*1590 FILLER_20_186
*1591 FILLER_20_190
*1592 FILLER_20_2
*1593 FILLER_20_22
*1594 FILLER_20_222
*1595 FILLER_20_238
*1596 FILLER_20_246
*1597 FILLER_20_250
*1598 FILLER_20_26
*1599 FILLER_20_30
*1600 FILLER_20_314
*1601 FILLER_20_318
*1602 FILLER_20_321
*1603 FILLER_20_34
*1604 FILLER_20_353
*1605 FILLER_20_361
*1606 FILLER_20_365
*1607 FILLER_20_37
*1608 FILLER_20_41
*1609 FILLER_20_45
*1610 FILLER_20_49
*1611 FILLER_20_53
*1612 FILLER_20_57
*1613 FILLER_20_6
*1614 FILLER_20_63
*1615 FILLER_20_65
*1616 FILLER_20_70
*1617 FILLER_20_79
*1618 FILLER_20_83
*1619 FILLER_20_87
*1620 FILLER_20_90
*1621 FILLER_20_94
*1622 FILLER_20_96
*1623 FILLER_20_99
*1624 FILLER_21_10
*1625 FILLER_21_101
*1626 FILLER_21_105
*1627 FILLER_21_109
*1628 FILLER_21_115
*1629 FILLER_21_119
*1630 FILLER_21_121
*1631 FILLER_21_124
*1632 FILLER_21_126
*1633 FILLER_21_129
*1634 FILLER_21_133
*1635 FILLER_21_135
*1636 FILLER_21_138
*1637 FILLER_21_14
*1638 FILLER_21_144
*1639 FILLER_21_146