*SPEF "ieee 1481-1999"
*DESIGN "user_project_wrapper"
*DATE "11:11:11 Fri 11 11, 1111"
*VENDOR "OpenRCX"
*PROGRAM "Parallel Extraction"
*VERSION "1.0"
*DESIGN_FLOW "NAME_SCOPE LOCAL" "PIN_CAP NONE"
*DIVIDER /
*DELIMITER :
*BUS_DELIMITER []
*T_UNIT 1 NS
*C_UNIT 1 PF
*R_UNIT 1 OHM
*L_UNIT 1 HENRY

*NAME_MAP
*1 io_in[0]
*2 io_in[10]
*3 io_in[11]
*4 io_in[12]
*5 io_in[13]
*6 io_in[14]
*7 io_in[15]
*8 io_in[16]
*9 io_in[17]
*10 io_in[18]
*11 io_in[19]
*12 io_in[1]
*13 io_in[20]
*14 io_in[21]
*15 io_in[22]
*16 io_in[23]
*17 io_in[24]
*18 io_in[25]
*19 io_in[26]
*20 io_in[27]
*21 io_in[28]
*22 io_in[29]
*23 io_in[2]
*24 io_in[30]
*25 io_in[31]
*26 io_in[32]
*27 io_in[33]
*28 io_in[34]
*29 io_in[35]
*30 io_in[36]
*31 io_in[37]
*32 io_in[3]
*33 io_in[4]
*34 io_in[5]
*35 io_in[6]
*36 io_in[7]
*37 io_in[8]
*38 io_in[9]
*39 io_oeb[0]
*40 io_oeb[10]
*41 io_oeb[11]
*42 io_oeb[12]
*43 io_oeb[13]
*44 io_oeb[14]
*45 io_oeb[15]
*46 io_oeb[16]
*47 io_oeb[17]
*48 io_oeb[18]
*49 io_oeb[19]
*50 io_oeb[1]
*51 io_oeb[20]
*52 io_oeb[21]
*53 io_oeb[22]
*54 io_oeb[23]
*55 io_oeb[24]
*56 io_oeb[25]
*57 io_oeb[26]
*58 io_oeb[27]
*59 io_oeb[28]
*60 io_oeb[29]
*61 io_oeb[2]
*62 io_oeb[30]
*63 io_oeb[31]
*64 io_oeb[32]
*65 io_oeb[33]
*66 io_oeb[34]
*67 io_oeb[35]
*68 io_oeb[36]
*69 io_oeb[37]
*70 io_oeb[3]
*71 io_oeb[4]
*72 io_oeb[5]
*73 io_oeb[6]
*74 io_oeb[7]
*75 io_oeb[8]
*76 io_oeb[9]
*77 io_out[0]
*78 io_out[10]
*79 io_out[11]
*80 io_out[12]
*81 io_out[13]
*82 io_out[14]
*83 io_out[15]
*84 io_out[16]
*85 io_out[17]
*86 io_out[18]
*87 io_out[19]
*88 io_out[1]
*89 io_out[20]
*90 io_out[21]
*91 io_out[22]
*92 io_out[23]
*93 io_out[24]
*94 io_out[25]
*95 io_out[26]
*96 io_out[27]
*97 io_out[28]
*98 io_out[29]
*99 io_out[2]
*100 io_out[30]
*101 io_out[31]
*102 io_out[32]
*103 io_out[33]
*104 io_out[34]
*105 io_out[35]
*106 io_out[36]
*107 io_out[37]
*108 io_out[3]
*109 io_out[4]
*110 io_out[5]
*111 io_out[6]
*112 io_out[7]
*113 io_out[8]
*114 io_out[9]
*115 la_data_in[0]
*116 la_data_in[10]
*117 la_data_in[11]
*118 la_data_in[12]
*119 la_data_in[13]
*120 la_data_in[14]
*121 la_data_in[15]
*122 la_data_in[16]
*123 la_data_in[17]
*124 la_data_in[18]
*125 la_data_in[19]
*126 la_data_in[1]
*127 la_data_in[20]
*128 la_data_in[21]
*129 la_data_in[22]
*130 la_data_in[23]
*131 la_data_in[24]
*132 la_data_in[25]
*133 la_data_in[26]
*134 la_data_in[27]
*135 la_data_in[28]
*136 la_data_in[29]
*137 la_data_in[2]
*138 la_data_in[30]
*139 la_data_in[31]
*140 la_data_in[32]
*141 la_data_in[33]
*142 la_data_in[34]
*143 la_data_in[35]
*144 la_data_in[36]
*145 la_data_in[37]
*146 la_data_in[38]
*147 la_data_in[39]
*148 la_data_in[3]
*149 la_data_in[40]
*150 la_data_in[41]
*151 la_data_in[42]
*152 la_data_in[43]
*153 la_data_in[44]
*154 la_data_in[45]
*155 la_data_in[46]
*156 la_data_in[47]
*157 la_data_in[48]
*158 la_data_in[49]
*159 la_data_in[4]
*160 la_data_in[50]
*161 la_data_in[51]
*162 la_data_in[52]
*163 la_data_in[53]
*164 la_data_in[54]
*165 la_data_in[55]
*166 la_data_in[56]
*167 la_data_in[57]
*168 la_data_in[58]
*169 la_data_in[59]
*170 la_data_in[5]
*171 la_data_in[60]
*172 la_data_in[61]
*173 la_data_in[62]
*174 la_data_in[63]
*175 la_data_in[6]
*176 la_data_in[7]
*177 la_data_in[8]
*178 la_data_in[9]
*179 la_data_out[0]
*180 la_data_out[10]
*181 la_data_out[11]
*182 la_data_out[12]
*183 la_data_out[13]
*184 la_data_out[14]
*185 la_data_out[15]
*186 la_data_out[16]
*187 la_data_out[17]
*188 la_data_out[18]
*189 la_data_out[19]
*190 la_data_out[1]
*191 la_data_out[20]
*192 la_data_out[21]
*193 la_data_out[22]
*194 la_data_out[23]
*195 la_data_out[24]
*196 la_data_out[25]
*197 la_data_out[26]
*198 la_data_out[27]
*199 la_data_out[28]
*200 la_data_out[29]
*201 la_data_out[2]
*202 la_data_out[30]
*203 la_data_out[31]
*204 la_data_out[32]
*205 la_data_out[33]
*206 la_data_out[34]
*207 la_data_out[35]
*208 la_data_out[36]
*209 la_data_out[37]
*210 la_data_out[38]
*211 la_data_out[39]
*212 la_data_out[3]
*213 la_data_out[40]
*214 la_data_out[41]
*215 la_data_out[42]
*216 la_data_out[43]
*217 la_data_out[44]
*218 la_data_out[45]
*219 la_data_out[46]
*220 la_data_out[47]
*221 la_data_out[48]
*222 la_data_out[49]
*223 la_data_out[4]
*224 la_data_out[50]
*225 la_data_out[51]
*226 la_data_out[52]
*227 la_data_out[53]
*228 la_data_out[54]
*229 la_data_out[55]
*230 la_data_out[56]
*231 la_data_out[57]
*232 la_data_out[58]
*233 la_data_out[59]
*234 la_data_out[5]
*235 la_data_out[60]
*236 la_data_out[61]
*237 la_data_out[62]
*238 la_data_out[63]
*239 la_data_out[6]
*240 la_data_out[7]
*241 la_data_out[8]
*242 la_data_out[9]
*243 la_oenb[0]
*244 la_oenb[10]
*245 la_oenb[11]
*246 la_oenb[12]
*247 la_oenb[13]
*248 la_oenb[14]
*249 la_oenb[15]
*250 la_oenb[16]
*251 la_oenb[17]
*252 la_oenb[18]
*253 la_oenb[19]
*254 la_oenb[1]
*255 la_oenb[20]
*256 la_oenb[21]
*257 la_oenb[22]
*258 la_oenb[23]
*259 la_oenb[24]
*260 la_oenb[25]
*261 la_oenb[26]
*262 la_oenb[27]
*263 la_oenb[28]
*264 la_oenb[29]
*265 la_oenb[2]
*266 la_oenb[30]
*267 la_oenb[31]
*268 la_oenb[32]
*269 la_oenb[33]
*270 la_oenb[34]
*271 la_oenb[35]
*272 la_oenb[36]
*273 la_oenb[37]
*274 la_oenb[38]
*275 la_oenb[39]
*276 la_oenb[3]
*277 la_oenb[40]
*278 la_oenb[41]
*279 la_oenb[42]
*280 la_oenb[43]
*281 la_oenb[44]
*282 la_oenb[45]
*283 la_oenb[46]
*284 la_oenb[47]
*285 la_oenb[48]
*286 la_oenb[49]
*287 la_oenb[4]
*288 la_oenb[50]
*289 la_oenb[51]
*290 la_oenb[52]
*291 la_oenb[53]
*292 la_oenb[54]
*293 la_oenb[55]
*294 la_oenb[56]
*295 la_oenb[57]
*296 la_oenb[58]
*297 la_oenb[59]
*298 la_oenb[5]
*299 la_oenb[60]
*300 la_oenb[61]
*301 la_oenb[62]
*302 la_oenb[63]
*303 la_oenb[6]
*304 la_oenb[7]
*305 la_oenb[8]
*306 la_oenb[9]
*307 user_clock2
*308 user_irq[0]
*309 user_irq[1]
*310 user_irq[2]
*313 wb_clk_i
*314 wb_rst_i
*315 wbs_ack_o
*316 wbs_adr_i[0]
*317 wbs_adr_i[10]
*318 wbs_adr_i[11]
*319 wbs_adr_i[12]
*320 wbs_adr_i[13]
*321 wbs_adr_i[14]
*322 wbs_adr_i[15]
*323 wbs_adr_i[16]
*324 wbs_adr_i[17]
*325 wbs_adr_i[18]
*326 wbs_adr_i[19]
*327 wbs_adr_i[1]
*328 wbs_adr_i[20]
*329 wbs_adr_i[21]
*330 wbs_adr_i[22]
*331 wbs_adr_i[23]
*332 wbs_adr_i[24]
*333 wbs_adr_i[25]
*334 wbs_adr_i[26]
*335 wbs_adr_i[27]
*336 wbs_adr_i[28]
*337 wbs_adr_i[29]
*338 wbs_adr_i[2]
*339 wbs_adr_i[30]
*340 wbs_adr_i[31]
*341 wbs_adr_i[3]
*342 wbs_adr_i[4]
*343 wbs_adr_i[5]
*344 wbs_adr_i[6]
*345 wbs_adr_i[7]
*346 wbs_adr_i[8]
*347 wbs_adr_i[9]
*348 wbs_cyc_i
*349 wbs_dat_i[0]
*350 wbs_dat_i[10]
*351 wbs_dat_i[11]
*352 wbs_dat_i[12]
*353 wbs_dat_i[13]
*354 wbs_dat_i[14]
*355 wbs_dat_i[15]
*356 wbs_dat_i[16]
*357 wbs_dat_i[17]
*358 wbs_dat_i[18]
*359 wbs_dat_i[19]
*360 wbs_dat_i[1]
*361 wbs_dat_i[20]
*362 wbs_dat_i[21]
*363 wbs_dat_i[22]
*364 wbs_dat_i[23]
*365 wbs_dat_i[24]
*366 wbs_dat_i[25]
*367 wbs_dat_i[26]
*368 wbs_dat_i[27]
*369 wbs_dat_i[28]
*370 wbs_dat_i[29]
*371 wbs_dat_i[2]
*372 wbs_dat_i[30]
*373 wbs_dat_i[31]
*374 wbs_dat_i[3]
*375 wbs_dat_i[4]
*376 wbs_dat_i[5]
*377 wbs_dat_i[6]
*378 wbs_dat_i[7]
*379 wbs_dat_i[8]
*380 wbs_dat_i[9]
*381 wbs_dat_o[0]
*382 wbs_dat_o[10]
*383 wbs_dat_o[11]
*384 wbs_dat_o[12]
*385 wbs_dat_o[13]
*386 wbs_dat_o[14]
*387 wbs_dat_o[15]
*388 wbs_dat_o[16]
*389 wbs_dat_o[17]
*390 wbs_dat_o[18]
*391 wbs_dat_o[19]
*392 wbs_dat_o[1]
*393 wbs_dat_o[20]
*394 wbs_dat_o[21]
*395 wbs_dat_o[22]
*396 wbs_dat_o[23]
*397 wbs_dat_o[24]
*398 wbs_dat_o[25]
*399 wbs_dat_o[26]
*400 wbs_dat_o[27]
*401 wbs_dat_o[28]
*402 wbs_dat_o[29]
*403 wbs_dat_o[2]
*404 wbs_dat_o[30]
*405 wbs_dat_o[31]
*406 wbs_dat_o[3]
*407 wbs_dat_o[4]
*408 wbs_dat_o[5]
*409 wbs_dat_o[6]
*410 wbs_dat_o[7]
*411 wbs_dat_o[8]
*412 wbs_dat_o[9]
*413 wbs_sel_i[0]
*414 wbs_sel_i[1]
*415 wbs_sel_i[2]
*416 wbs_sel_i[3]
*417 wbs_stb_i
*418 wbs_we_i
*419 collatz

*PORTS
io_in[0] I
io_in[10] I
io_in[11] I
io_in[12] I
io_in[13] I
io_in[14] I
io_in[15] I
io_in[16] I
io_in[17] I
io_in[18] I
io_in[19] I
io_in[1] I
io_in[20] I
io_in[21] I
io_in[22] I
io_in[23] I
io_in[24] I
io_in[25] I
io_in[26] I
io_in[27] I
io_in[28] I
io_in[29] I
io_in[2] I
io_in[30] I
io_in[31] I
io_in[32] I
io_in[33] I
io_in[34] I
io_in[35] I
io_in[36] I
io_in[37] I
io_in[3] I
io_in[4] I
io_in[5] I
io_in[6] I
io_in[7] I
io_in[8] I
io_in[9] I
io_oeb[0] O
io_oeb[10] O
io_oeb[11] O
io_oeb[12] O
io_oeb[13] O
io_oeb[14] O
io_oeb[15] O
io_oeb[16] O
io_oeb[17] O
io_oeb[18] O
io_oeb[19] O
io_oeb[1] O
io_oeb[20] O
io_oeb[21] O
io_oeb[22] O
io_oeb[23] O
io_oeb[24] O
io_oeb[25] O
io_oeb[26] O
io_oeb[27] O
io_oeb[28] O
io_oeb[29] O
io_oeb[2] O
io_oeb[30] O
io_oeb[31] O
io_oeb[32] O
io_oeb[33] O
io_oeb[34] O
io_oeb[35] O
io_oeb[36] O
io_oeb[37] O
io_oeb[3] O
io_oeb[4] O
io_oeb[5] O
io_oeb[6] O
io_oeb[7] O
io_oeb[8] O
io_oeb[9] O
io_out[0] O
io_out[10] O
io_out[11] O
io_out[12] O
io_out[13] O
io_out[14] O
io_out[15] O
io_out[16] O
io_out[17] O
io_out[18] O
io_out[19] O
io_out[1] O
io_out[20] O
io_out[21] O
io_out[22] O
io_out[23] O
io_out[24] O
io_out[25] O
io_out[26] O
io_out[27] O
io_out[28] O
io_out[29] O
io_out[2] O
io_out[30] O
io_out[31] O
io_out[32] O
io_out[33] O
io_out[34] O
io_out[35] O
io_out[36] O
io_out[37] O
io_out[3] O
io_out[4] O
io_out[5] O
io_out[6] O
io_out[7] O
io_out[8] O
io_out[9] O
la_data_in[0] I
la_data_in[10] I
la_data_in[11] I
la_data_in[12] I
la_data_in[13] I
la_data_in[14] I
la_data_in[15] I
la_data_in[16] I
la_data_in[17] I
la_data_in[18] I
la_data_in[19] I
la_data_in[1] I
la_data_in[20] I
la_data_in[21] I
la_data_in[22] I
la_data_in[23] I
la_data_in[24] I
la_data_in[25] I
la_data_in[26] I
la_data_in[27] I
la_data_in[28] I
la_data_in[29] I
la_data_in[2] I
la_data_in[30] I
la_data_in[31] I
la_data_in[32] I
la_data_in[33] I
la_data_in[34] I
la_data_in[35] I
la_data_in[36] I
la_data_in[37] I
la_data_in[38] I
la_data_in[39] I
la_data_in[3] I
la_data_in[40] I
la_data_in[41] I
la_data_in[42] I
la_data_in[43] I
la_data_in[44] I
la_data_in[45] I
la_data_in[46] I
la_data_in[47] I
la_data_in[48] I
la_data_in[49] I
la_data_in[4] I
la_data_in[50] I
la_data_in[51] I
la_data_in[52] I
la_data_in[53] I
la_data_in[54] I
la_data_in[55] I
la_data_in[56] I
la_data_in[57] I
la_data_in[58] I
la_data_in[59] I
la_data_in[5] I
la_data_in[60] I
la_data_in[61] I
la_data_in[62] I
la_data_in[63] I
la_data_in[6] I
la_data_in[7] I
la_data_in[8] I
la_data_in[9] I
la_data_out[0] O
la_data_out[10] O
la_data_out[11] O
la_data_out[12] O
la_data_out[13] O
la_data_out[14] O
la_data_out[15] O
la_data_out[16] O
la_data_out[17] O
la_data_out[18] O
la_data_out[19] O
la_data_out[1] O
la_data_out[20] O
la_data_out[21] O
la_data_out[22] O
la_data_out[23] O
la_data_out[24] O
la_data_out[25] O
la_data_out[26] O
la_data_out[27] O
la_data_out[28] O
la_data_out[29] O
la_data_out[2] O
la_data_out[30] O
la_data_out[31] O
la_data_out[32] O
la_data_out[33] O
la_data_out[34] O
la_data_out[35] O
la_data_out[36] O
la_data_out[37] O
la_data_out[38] O
la_data_out[39] O
la_data_out[3] O
la_data_out[40] O
la_data_out[41] O
la_data_out[42] O
la_data_out[43] O
la_data_out[44] O
la_data_out[45] O
la_data_out[46] O
la_data_out[47] O
la_data_out[48] O
la_data_out[49] O
la_data_out[4] O
la_data_out[50] O
la_data_out[51] O
la_data_out[52] O
la_data_out[53] O
la_data_out[54] O
la_data_out[55] O
la_data_out[56] O
la_data_out[57] O
la_data_out[58] O
la_data_out[59] O
la_data_out[5] O
la_data_out[60] O
la_data_out[61] O
la_data_out[62] O
la_data_out[63] O
la_data_out[6] O
la_data_out[7] O
la_data_out[8] O
la_data_out[9] O
la_oenb[0] I
la_oenb[10] I
la_oenb[11] I
la_oenb[12] I
la_oenb[13] I
la_oenb[14] I
la_oenb[15] I
la_oenb[16] I
la_oenb[17] I
la_oenb[18] I
la_oenb[19] I
la_oenb[1] I
la_oenb[20] I
la_oenb[21] I
la_oenb[22] I
la_oenb[23] I
la_oenb[24] I
la_oenb[25] I
la_oenb[26] I
la_oenb[27] I
la_oenb[28] I
la_oenb[29] I
la_oenb[2] I
la_oenb[30] I
la_oenb[31] I
la_oenb[32] I
la_oenb[33] I
la_oenb[34] I
la_oenb[35] I
la_oenb[36] I
la_oenb[37] I
la_oenb[38] I
la_oenb[39] I
la_oenb[3] I
la_oenb[40] I
la_oenb[41] I
la_oenb[42] I
la_oenb[43] I
la_oenb[44] I
la_oenb[45] I
la_oenb[46] I
la_oenb[47] I
la_oenb[48] I
la_oenb[49] I
la_oenb[4] I
la_oenb[50] I
la_oenb[51] I
la_oenb[52] I
la_oenb[53] I
la_oenb[54] I
la_oenb[55] I
la_oenb[56] I
la_oenb[57] I
la_oenb[58] I
la_oenb[59] I
la_oenb[5] I
la_oenb[60] I
la_oenb[61] I
la_oenb[62] I
la_oenb[63] I
la_oenb[6] I
la_oenb[7] I
la_oenb[8] I
la_oenb[9] I
user_clock2 I
user_irq[0] O
user_irq[1] O
user_irq[2] O
wb_clk_i I
wb_rst_i I
wbs_ack_o O
wbs_adr_i[0] I
wbs_adr_i[10] I
wbs_adr_i[11] I
wbs_adr_i[12] I
wbs_adr_i[13] I
wbs_adr_i[14] I
wbs_adr_i[15] I
wbs_adr_i[16] I
wbs_adr_i[17] I
wbs_adr_i[18] I
wbs_adr_i[19] I
wbs_adr_i[1] I
wbs_adr_i[20] I
wbs_adr_i[21] I
wbs_adr_i[22] I
wbs_adr_i[23] I
wbs_adr_i[24] I
wbs_adr_i[25] I
wbs_adr_i[26] I
wbs_adr_i[27] I
wbs_adr_i[28] I
wbs_adr_i[29] I
wbs_adr_i[2] I
wbs_adr_i[30] I
wbs_adr_i[31] I
wbs_adr_i[3] I
wbs_adr_i[4] I
wbs_adr_i[5] I
wbs_adr_i[6] I
wbs_adr_i[7] I
wbs_adr_i[8] I
wbs_adr_i[9] I
wbs_cyc_i I
wbs_dat_i[0] I
wbs_dat_i[10] I
wbs_dat_i[11] I
wbs_dat_i[12] I
wbs_dat_i[13] I
wbs_dat_i[14] I
wbs_dat_i[15] I
wbs_dat_i[16] I
wbs_dat_i[17] I
wbs_dat_i[18] I
wbs_dat_i[19] I
wbs_dat_i[1] I
wbs_dat_i[20] I
wbs_dat_i[21] I
wbs_dat_i[22] I
wbs_dat_i[23] I
wbs_dat_i[24] I
wbs_dat_i[25] I
wbs_dat_i[26] I
wbs_dat_i[27] I
wbs_dat_i[28] I
wbs_dat_i[29] I
wbs_dat_i[2] I
wbs_dat_i[30] I
wbs_dat_i[31] I
wbs_dat_i[3] I
wbs_dat_i[4] I
wbs_dat_i[5] I
wbs_dat_i[6] I
wbs_dat_i[7] I
wbs_dat_i[8] I
wbs_dat_i[9] I
wbs_dat_o[0] O
wbs_dat_o[10] O
wbs_dat_o[11] O
wbs_dat_o[12] O
wbs_dat_o[13] O
wbs_dat_o[14] O
wbs_dat_o[15] O
wbs_dat_o[16] O
wbs_dat_o[17] O
wbs_dat_o[18] O
wbs_dat_o[19] O
wbs_dat_o[1] O
wbs_dat_o[20] O
wbs_dat_o[21] O
wbs_dat_o[22] O
wbs_dat_o[23] O
wbs_dat_o[24] O
wbs_dat_o[25] O
wbs_dat_o[26] O
wbs_dat_o[27] O
wbs_dat_o[28] O
wbs_dat_o[29] O
wbs_dat_o[2] O
wbs_dat_o[30] O
wbs_dat_o[31] O
wbs_dat_o[3] O
wbs_dat_o[4] O
wbs_dat_o[5] O
wbs_dat_o[6] O
wbs_dat_o[7] O
wbs_dat_o[8] O
wbs_dat_o[9] O
wbs_sel_i[0] I
wbs_sel_i[1] I
wbs_sel_i[2] I
wbs_sel_i[3] I
wbs_stb_i I
wbs_we_i I

*D_NET *313 0.333047
*CONN
*P wb_clk_i I
*I *419:clk I *D collatz
*CAP
1 wb_clk_i 0.000281541
2 *419:clk 0.000874038
3 *313:16 0.0282884
4 *313:15 0.0274143
5 *313:13 0.0796046
6 *313:11 0.0798861
7 *313:16 *351:22 0
8 *313:16 *371:14 0.116698
9 *313:16 *377:14 0
*RES
1 wb_clk_i *313:11 2.655 
2 *313:11 *313:13 615.15 
3 *313:13 *313:15 4.5 
4 *313:15 *313:16 341.91 
5 *313:16 *419:clk 9.585 
*END

*D_NET *349 0.250155
*CONN
*P wbs_dat_i[0] I
*I *419:co[0] I *D collatz
*CAP
1 wbs_dat_i[0] 0.00176863
2 *419:co[0] 0.000364389
3 *349:14 0.0364221
4 *349:13 0.0360577
5 *349:11 0.0783249
6 *349:10 0.0800935
7 *349:10 wbs_dat_o[0] 0.000604228
8 *349:14 *419:co[1] 0.0082862
9 *349:14 *350:16 0
10 *349:14 *352:8 0
11 *349:14 *377:14 0.00754752
12 *349:14 *380:22 0.000685867
*RES
1 wbs_dat_i[0] *349:10 20.835 
2 *349:10 *349:11 605.25 
3 *349:11 *349:13 4.5 
4 *349:13 *349:14 320.67 
5 *349:14 *419:co[0] 6.885 
*END

*D_NET *350 0.314791
*CONN
*P wbs_dat_i[10] I
*I *419:co[10] I *D collatz
*CAP
1 wbs_dat_i[10] 9.76891e-05
2 *419:co[10] 0.00135856
3 *350:16 0.0107376
4 *350:15 0.00937908
5 *350:13 0.0792679
6 *350:11 0.0793656
7 *419:co[10] *419:co[8] 0.000656029
8 *419:co[10] *352:8 0
9 *419:co[10] *354:14 0.00562396
10 *350:16 *352:8 0.103932
11 *350:16 *378:8 0.0243727
12 *349:14 *350:16 0
*RES
1 wbs_dat_i[10] *350:11 1.215 
2 *350:11 *350:13 611.01 
3 *350:13 *350:15 4.5 
4 *350:15 *350:16 278.37 
5 *350:16 *419:co[10] 31.725 
*END

*D_NET *351 0.254573
*CONN
*P wbs_dat_i[11] I
*I *419:co[11] I *D collatz
*CAP
1 wbs_dat_i[11] 0.00365149
2 *419:co[11] 0.00049394
3 *351:22 0.00894467
4 *351:21 0.00845073
5 *351:19 0.076336
6 *351:18 0.076336
7 *351:16 0.0253195
8 *351:15 0.028971
9 *351:22 *354:14 0.00123966
10 *351:22 *371:14 0
11 *351:22 *377:14 0.0217166
12 *351:22 *379:22 0.00220381
13 *351:22 *380:22 0.000909486
14 *313:16 *351:22 0
*RES
1 wbs_dat_i[11] *351:15 31.905 
2 *351:15 *351:16 198.45 
3 *351:16 *351:18 4.5 
4 *351:18 *351:19 588.51 
5 *351:19 *351:21 4.5 
6 *351:21 *351:22 92.79 
7 *351:22 *419:co[11] 7.965 
*END

*D_NET *352 0.305357
*CONN
*P wbs_dat_i[12] I
*I *419:co[12] I *D collatz
*CAP
1 wbs_dat_i[12] 0.079364
2 *419:co[12] 0.00153328
3 *352:8 0.0202852
4 *352:7 0.0187519
5 *352:5 0.079364
6 *419:co[12] *354:14 0.00212725
7 *352:8 *419:co[1] 0
8 *352:8 *354:14 0
9 *419:co[10] *352:8 0
10 *349:14 *352:8 0
11 *350:16 *352:8 0.103932
*RES
1 wbs_dat_i[12] *352:5 611.145 
2 *352:5 *352:7 4.5 
3 *352:7 *352:8 275.31 
4 *352:8 *419:co[12] 29.385 
*END

*D_NET *353 0.292735
*CONN
*P wbs_dat_i[13] I
*I *419:co[13] I *D collatz
*CAP
1 wbs_dat_i[13] 0.000166634
2 *419:co[13] 0.000744966
3 *353:16 0.0243901
4 *353:15 0.0236451
5 *353:13 0.0800151
6 *353:11 0.0801817
7 *353:16 *371:14 0.0835919
*RES
1 wbs_dat_i[13] *353:11 1.755 
2 *353:11 *353:13 615.51 
3 *353:13 *353:15 4.5 
4 *353:15 *353:16 286.29 
5 *353:16 *419:co[13] 9.945 
*END

*D_NET *354 0.312206
*CONN
*P wbs_dat_i[14] I
*I *419:co[14] I *D collatz
*CAP
1 wbs_dat_i[14] 0.00127368
2 *419:co[14] 0.000362451
3 *354:14 0.00655817
4 *354:13 0.00619572
5 *354:11 0.0783965
6 *354:10 0.0783965
7 *354:8 0.0109115
8 *354:7 0.0121852
9 *354:8 *382:10 0.0664506
10 *354:14 *419:co[1] 0.010046
11 *354:14 *380:22 0.0324392
12 *419:co[10] *354:14 0.00562396
13 *419:co[12] *354:14 0.00212725
14 *351:22 *354:14 0.00123966
15 *352:8 *354:14 0
*RES
1 wbs_dat_i[14] *354:7 13.545 
2 *354:7 *354:8 166.23 
3 *354:8 *354:10 4.5 
4 *354:10 *354:11 603.81 
5 *354:11 *354:13 4.5 
6 *354:13 *354:14 116.55 
7 *354:14 *419:co[14] 7.245 
*END

*D_NET *355 0.293268
*CONN
*P wbs_dat_i[15] I
*I *419:co[15] I *D collatz
*CAP
1 wbs_dat_i[15] 9.76891e-05
2 *419:co[15] 0.00107373
3 *355:16 0.0238544
4 *355:15 0.0227807
5 *355:13 0.0804485
6 *355:11 0.0805462
7 *355:16 *376:14 0.0844667
*RES
1 wbs_dat_i[15] *355:11 1.215 
2 *355:11 *355:13 618.21 
3 *355:13 *355:15 4.5 
4 *355:15 *355:16 281.43 
5 *355:16 *419:co[15] 12.645 
*END

*D_NET *356 0.233014
*CONN
*P wbs_dat_i[16] I
*I *419:st I *D collatz
*CAP
1 wbs_dat_i[16] 0.00410496
2 *419:st 0.000488251
3 *356:19 0.0758972
4 *356:18 0.0754089
5 *356:16 0.0365017
6 *356:15 0.0406066
7 *356:15 wbs_dat_o[16] 6.64156e-06
*RES
1 wbs_dat_i[16] *356:15 34.605 
2 *356:15 *356:16 283.59 
3 *356:16 *356:18 4.5 
4 *356:18 *356:19 582.75 
5 *356:19 *419:st 12.735 
*END

*D_NET *360 0.254803
*CONN
*P wbs_dat_i[1] I
*I *419:co[1] I *D collatz
*CAP
1 wbs_dat_i[1] 0.00403915
2 *419:co[1] 0.000971981
3 *360:19 0.0764078
4 *360:18 0.0754358
5 *360:16 0.0375369
6 *360:15 0.041576
7 *419:co[1] *380:22 0.000503485
8 *349:14 *419:co[1] 0.0082862
9 *352:8 *419:co[1] 0
10 *354:14 *419:co[1] 0.010046
*RES
1 wbs_dat_i[1] *360:15 36.225 
2 *360:15 *360:16 292.95 
3 *360:16 *360:18 4.5 
4 *360:18 *360:19 582.21 
5 *360:19 *419:co[1] 39.555 
*END

*D_NET *371 0.380339
*CONN
*P wbs_dat_i[2] I
*I *419:co[2] I *D collatz
*CAP
1 wbs_dat_i[2] 0.00120747
2 *419:co[2] 0.000822756
3 *371:14 0.0100668
4 *371:13 0.00924402
5 *371:11 0.0787504
6 *371:10 0.0799579
7 *313:16 *371:14 0.116698
8 *351:22 *371:14 0
9 *353:16 *371:14 0.0835919
*RES
1 wbs_dat_i[2] *371:10 18.135 
2 *371:10 *371:11 607.95 
3 *371:11 *371:13 4.5 
4 *371:13 *371:14 313.11 
5 *371:14 *419:co[2] 9.765 
*END

*D_NET *374 0.319781
*CONN
*P wbs_dat_i[3] I
*I *419:co[3] I *D collatz
*CAP
1 wbs_dat_i[3] 0.000120671
2 *419:co[3] 0.00120225
3 *374:16 0.0233154
4 *374:15 0.0221132
5 *374:13 0.0800454
6 *374:11 0.0801661
7 *374:16 *376:14 0.112818
*RES
1 wbs_dat_i[3] *374:11 1.395 
2 *374:11 *374:13 617.85 
3 *374:13 *374:15 4.5 
4 *374:15 *374:16 310.41 
5 *374:16 *419:co[3] 12.645 
*END

*D_NET *375 0.242975
*CONN
*P wbs_dat_i[4] I
*I *419:co[4] I *D collatz
*CAP
1 wbs_dat_i[4] 0.000321759
2 *419:co[4] 0.00153712
3 *375:16 0.0407312
4 *375:15 0.0391941
5 *375:13 0.0804343
6 *375:11 0.0807561
*RES
1 wbs_dat_i[4] *375:11 2.835 
2 *375:11 *375:13 620.55 
3 *375:13 *375:15 4.5 
4 *375:15 *375:16 306.81 
5 *375:16 *419:co[4] 14.985 
*END

*D_NET *376 0.376754
*CONN
*P wbs_dat_i[5] I
*I *419:co[5] I *D collatz
*CAP
1 wbs_dat_i[5] 0.00207226
2 *419:co[5] 0.00118344
3 *376:14 0.00844429
4 *376:13 0.00726085
5 *376:11 0.0791639
6 *376:10 0.0812361
7 *376:10 wbs_dat_o[5] 0
8 *376:10 *407:10 0.000108893
9 *355:16 *376:14 0.0844667
10 *374:16 *376:14 0.112818
*RES
1 wbs_dat_i[5] *376:10 22.275 
2 *376:10 *376:11 610.65 
3 *376:11 *376:13 4.5 
4 *376:13 *376:14 296.37 
5 *376:14 *419:co[5] 12.465 
*END

*D_NET *377 0.285071
*CONN
*P wbs_dat_i[6] I
*I *419:co[6] I *D collatz
*CAP
1 wbs_dat_i[6] 0.00143812
2 *419:co[6] 0.000527227
3 *377:14 0.0135562
4 *377:13 0.013029
5 *377:11 0.0777802
6 *377:10 0.0777802
7 *377:8 0.0137565
8 *377:7 0.0151946
9 *377:7 wbs_dat_o[6] 0.00116752
10 *377:8 *387:10 0.0162714
11 *377:14 *379:22 0.0248023
12 *377:14 *380:22 0.000503485
13 *313:16 *377:14 0
14 *349:14 *377:14 0.00754752
15 *351:22 *377:14 0.0217166
*RES
1 wbs_dat_i[6] *377:7 18.945 
2 *377:7 *377:8 126.27 
3 *377:8 *377:10 4.5 
4 *377:10 *377:11 598.95 
5 *377:11 *377:13 4.5 
6 *377:13 *377:14 173.79 
7 *377:14 *419:co[6] 7.785 
*END

*D_NET *378 0.238319
*CONN
*P wbs_dat_i[7] I
*I *419:co[7] I *D collatz
*CAP
1 wbs_dat_i[7] 0.0790934
2 *419:co[7] 6.31991e-05
3 *378:8 0.0278799
4 *378:7 0.0278167
5 *378:5 0.0790934
6 *350:16 *378:8 0.0243727
*RES
1 wbs_dat_i[7] *378:5 610.245 
2 *378:5 *378:7 4.5 
3 *378:7 *378:8 297.99 
4 *378:8 *419:co[7] 4.995 
*END

*D_NET *379 0.276934
*CONN
*P wbs_dat_i[8] I
*I *419:co[8] I *D collatz
*CAP
1 wbs_dat_i[8] 0.00530471
2 *419:co[8] 0.00035704
3 *379:22 0.00114938
4 *379:21 0.000792341
5 *379:19 0.0744647
6 *379:18 0.0744647
7 *379:16 0.0278205
8 *379:15 0.0331252
9 *379:22 *380:22 0.0317934
10 *419:co[10] *419:co[8] 0.000656029
11 *351:22 *379:22 0.00220381
12 *377:14 *379:22 0.0248023
*RES
1 wbs_dat_i[8] *379:15 44.865 
2 *379:15 *379:16 217.35 
3 *379:16 *379:18 4.5 
4 *379:18 *379:19 574.65 
5 *379:19 *379:21 4.5 
6 *379:21 *379:22 79.83 
7 *379:22 *419:co[8] 7.605 
*END

*D_NET *380 0.281518
*CONN
*P wbs_dat_i[9] I
*I *419:co[9] I *D collatz
*CAP
1 wbs_dat_i[9] 0.000321759
2 *419:co[9] 0.000433348
3 *380:22 0.00100832
4 *380:21 0.000574967
5 *380:19 0.0726749
6 *380:18 0.0726749
7 *380:16 0.0264082
8 *380:15 0.0264082
9 *380:13 0.00692822
10 *380:11 0.00724997
11 *419:co[1] *380:22 0.000503485
12 *349:14 *380:22 0.000685867
13 *351:22 *380:22 0.000909486
14 *354:14 *380:22 0.0324392
15 *377:14 *380:22 0.000503485
16 *379:22 *380:22 0.0317934
*RES
1 wbs_dat_i[9] *380:11 2.835 
2 *380:11 *380:13 52.11 
3 *380:13 *380:15 4.5 
4 *380:15 *380:16 206.55 
5 *380:16 *380:18 4.5 
6 *380:18 *380:19 560.97 
7 *380:19 *380:21 4.5 
8 *380:21 *380:22 89.55 
9 *380:22 *419:co[9] 7.425 
*END

*D_NET *381 0.205887
*CONN
*P wbs_dat_o[0] O
*I *419:x[0] O *D collatz
*CAP
1 wbs_dat_o[0] 0.001448
2 *419:x[0] 0.0011411
3 *381:11 0.0617455
4 *381:10 0.0602975
5 *381:8 0.0397549
6 *381:7 0.040896
7 *349:10 wbs_dat_o[0] 0.000604228
*RES
1 *419:x[0] *381:7 13.005 
2 *381:7 *381:8 310.05 
3 *381:8 *381:10 4.5 
4 *381:10 *381:11 465.93 
5 *381:11 wbs_dat_o[0] 20.655 
*END

*D_NET *382 0.244296
*CONN
*P wbs_dat_o[10] O
*I *419:x[10] O *D collatz
*CAP
1 wbs_dat_o[10] 0.00121875
2 *419:x[10] 9.76714e-05
3 *382:10 0.0275361
4 *382:9 0.0263174
5 *382:7 0.0612889
6 *382:5 0.0613866
7 *382:10 *386:10 0
8 *354:8 *382:10 0.0664506
*RES
1 *419:x[10] *382:5 0.765 
2 *382:5 *382:7 472.95 
3 *382:7 *382:9 4.5 
4 *382:9 *382:10 285.03 
5 *382:10 wbs_dat_o[10] 13.365 
*END

*D_NET *383 0.34034
*CONN
*P wbs_dat_o[11] O
*I *419:x[11] O *D collatz
*CAP
1 wbs_dat_o[11] 0.00116426
2 *419:x[11] 2.87269e-05
3 *383:10 0.00553688
4 *383:9 0.00437262
5 *383:7 0.0615576
6 *383:5 0.0615864
7 *383:10 *386:10 0.102391
8 *383:10 *411:10 0.103703
*RES
1 *419:x[11] *383:5 0.225 
2 *383:5 *383:7 474.93 
3 *383:7 *383:9 4.5 
4 *383:9 *383:10 283.95 
5 *383:10 wbs_dat_o[11] 11.385 
*END

*D_NET *384 0.269694
*CONN
*P wbs_dat_o[12] O
*I *419:x[12] O *D collatz
*CAP
1 wbs_dat_o[12] 0.00236705
2 *419:x[12] 0.00250017
3 *384:14 0.0207535
4 *384:13 0.0183865
5 *384:11 0.0593829
6 *384:10 0.061883
7 *384:14 *385:10 0.104421
*RES
1 *419:x[12] *384:10 26.955 
2 *384:10 *384:11 458.73 
3 *384:11 *384:13 4.5 
4 *384:13 *384:14 270.63 
5 *384:14 wbs_dat_o[12] 21.645 
*END

*D_NET *385 0.269179
*CONN
*P wbs_dat_o[13] O
*I *419:x[13] O *D collatz
*CAP
1 wbs_dat_o[13] 0.00234407
2 *419:x[13] 0.00023556
3 *385:10 0.021964
4 *385:9 0.01962
5 *385:7 0.0601795
6 *385:5 0.0604151
7 *384:14 *385:10 0.104421
*RES
1 *419:x[13] *385:5 1.845 
2 *385:5 *385:7 464.85 
3 *385:7 *385:9 4.5 
4 *385:9 *385:10 279.09 
5 *385:10 wbs_dat_o[13] 21.465 
*END

*D_NET *386 0.267
*CONN
*P wbs_dat_o[14] O
*I *419:x[14] O *D collatz
*CAP
1 wbs_dat_o[14] 0.00100493
2 *419:x[14] 0.000166616
3 *386:10 0.0206511
4 *386:9 0.0196461
5 *386:7 0.0614868
6 *386:5 0.0616534
7 *382:10 *386:10 0
8 *383:10 *386:10 0.102391
*RES
1 *419:x[14] *386:5 1.305 
2 *386:5 *386:7 474.75 
3 *386:7 *386:9 4.5 
4 *386:9 *386:10 278.01 
5 *386:10 wbs_dat_o[14] 11.565 
*END

*D_NET *387 0.207484
*CONN
*P wbs_dat_o[15] O
*I *419:x[15] O *D collatz
*CAP
1 wbs_dat_o[15] 0.00198805
2 *419:x[15] 9.76714e-05
3 *387:10 0.0349569
4 *387:9 0.0329689
5 *387:7 0.0605515
6 *387:5 0.0606492
7 *377:8 *387:10 0.0162714
*RES
1 *419:x[15] *387:5 0.765 
2 *387:5 *387:7 467.55 
3 *387:7 *387:9 4.5 
4 *387:9 *387:10 276.93 
5 *387:10 wbs_dat_o[15] 18.765 
*END

*D_NET *388 0.246568
*CONN
*P wbs_dat_o[16] O
*I *419:bs O *D collatz
*CAP
1 wbs_dat_o[16] 0.00309185
2 *419:bs 2.87269e-05
3 *388:10 0.0278333
4 *388:9 0.0247414
5 *388:7 0.0597959
6 *388:5 0.0598246
7 *388:10 *406:10 0.071246
8 *356:15 wbs_dat_o[16] 6.64156e-06
*RES
1 *419:bs *388:5 0.225 
2 *388:5 *388:7 461.97 
3 *388:7 *388:9 4.5 
4 *388:9 *388:10 278.19 
5 *388:10 wbs_dat_o[16] 27.045 
*END

*D_NET *392 0.204909
*CONN
*P wbs_dat_o[1] O
*I *419:x[1] O *D collatz
*CAP
1 wbs_dat_o[1] 0.00151037
2 *419:x[1] 2.87269e-05
3 *392:10 0.0414178
4 *392:9 0.0399074
5 *392:7 0.061008
6 *392:5 0.0610368
*RES
1 *419:x[1] *392:5 0.225 
2 *392:5 *392:7 470.25 
3 *392:7 *392:9 4.5 
4 *392:9 *392:10 309.33 
5 *392:10 wbs_dat_o[1] 16.065 
*END

*D_NET *403 0.284417
*CONN
*P wbs_dat_o[2] O
*I *419:x[2] O *D collatz
*CAP
1 wbs_dat_o[2] 0.000810134
2 *419:x[2] 0.000304505
3 *403:10 0.0277338
4 *403:9 0.0269236
5 *403:7 0.0617933
6 *403:5 0.0620978
7 *403:10 *407:10 0.104754
*RES
1 *419:x[2] *403:5 2.385 
2 *403:5 *403:7 475.65 
3 *403:7 *403:9 4.5 
4 *403:9 *403:10 302.67 
5 *403:10 wbs_dat_o[2] 10.665 
*END

*D_NET *406 0.25184
*CONN
*P wbs_dat_o[3] O
*I *419:x[3] O *D collatz
*CAP
1 wbs_dat_o[3] 0.00276483
2 *419:x[3] 0.00023556
3 *406:10 0.0301789
4 *406:9 0.0274141
5 *406:7 0.0598827
6 *406:5 0.0601183
7 *388:10 *406:10 0.071246
*RES
1 *419:x[3] *406:5 1.845 
2 *406:5 *406:7 462.15 
3 *406:7 *406:9 4.5 
4 *406:9 *406:10 299.79 
5 *406:10 wbs_dat_o[3] 25.965 
*END

*D_NET *407 0.341825
*CONN
*P wbs_dat_o[4] O
*I *419:x[4] O *D collatz
*CAP
1 wbs_dat_o[4] 0.00104738
2 *419:x[4] 0.000182238
3 *407:10 0.00630081
4 *407:9 0.00525342
5 *407:7 0.0617384
6 *407:5 0.0619206
7 *407:10 *410:10 0.100519
8 *376:10 *407:10 0.000108893
9 *403:10 *407:10 0.104754
*RES
1 *419:x[4] *407:5 1.305 
2 *407:5 *407:7 475.47 
3 *407:7 *407:9 4.5 
4 *407:9 *407:10 294.21 
5 *407:10 wbs_dat_o[4] 10.845 
*END

*D_NET *408 0.279939
*CONN
*P wbs_dat_o[5] O
*I *419:x[5] O *D collatz
*CAP
1 wbs_dat_o[5] 0.00324248
2 *419:x[5] 9.76714e-05
3 *408:10 0.0232361
4 *408:9 0.0199937
5 *408:7 0.0595061
6 *408:5 0.0596037
7 *408:10 *409:10 0.11426
8 *376:10 wbs_dat_o[5] 0
*RES
1 *419:x[5] *408:5 0.765 
2 *408:5 *408:7 459.45 
3 *408:7 *408:9 4.5 
4 *408:9 *408:10 294.39 
5 *408:10 wbs_dat_o[5] 28.485 
*END

*D_NET *409 0.280041
*CONN
*P wbs_dat_o[6] O
*I *419:x[6] O *D collatz
*CAP
1 wbs_dat_o[6] 0.00283476
2 *419:x[6] 2.87269e-05
3 *409:10 0.0228113
4 *409:9 0.0199765
5 *409:7 0.0594671
6 *409:5 0.0594958
7 *377:7 wbs_dat_o[6] 0.00116752
8 *408:10 *409:10 0.11426
*RES
1 *419:x[6] *409:5 0.225 
2 *409:5 *409:7 459.27 
3 *409:7 *409:9 4.5 
4 *409:9 *409:10 294.39 
5 *409:10 wbs_dat_o[6] 29.745 
*END

*D_NET *410 0.340014
*CONN
*P wbs_dat_o[7] O
*I *419:x[7] O *D collatz
*CAP
1 wbs_dat_o[7] 0.000888051
2 *419:x[7] 0.000307629
3 *410:10 0.00512461
4 *410:9 0.00423656
5 *410:7 0.0616675
6 *410:5 0.0619751
7 *410:10 *411:10 0.105296
8 *407:10 *410:10 0.100519
*RES
1 *419:x[7] *410:5 2.385 
2 *410:5 *410:7 475.29 
3 *410:7 *410:9 4.5 
4 *410:9 *410:10 288.27 
5 *410:10 wbs_dat_o[7] 11.025 
*END

*D_NET *411 0.342119
*CONN
*P wbs_dat_o[8] O
*I *419:x[8] O *D collatz
*CAP
1 wbs_dat_o[8] 0.000927009
2 *419:x[8] 0.000273047
3 *411:10 0.00465876
4 *411:9 0.00373175
5 *411:7 0.0616285
6 *411:5 0.0619016
7 *383:10 *411:10 0.103703
8 *410:10 *411:10 0.105296
*RES
1 *419:x[8] *411:5 1.845 
2 *411:5 *411:7 475.11 
3 *411:7 *411:9 4.5 
4 *411:9 *411:10 287.19 
5 *411:10 wbs_dat_o[8] 11.205 
*END

*D_NET *412 0.199118
*CONN
*P wbs_dat_o[9] O
*I *419:x[9] O *D collatz
*CAP
1 wbs_dat_o[9] 0.0617853
2 *419:x[9] 0.00078041
3 *412:10 0.0617853
4 *412:8 0.0369931
5 *412:7 0.0377735
*RES
1 *419:x[9] *412:7 10.305 
2 *412:7 *412:8 287.55 
3 *412:8 *412:10 4.5 
4 *412:10 wbs_dat_o[9] 475.965 
*END
