*SPEF "ieee 1481-1999"
*DESIGN "user_project_wrapper"
*DATE "11:11:11 Fri 11 11, 1111"
*VENDOR "OpenRCX"
*PROGRAM "Parallel Extraction"
*VERSION "1.0"
*DESIGN_FLOW "NAME_SCOPE LOCAL" "PIN_CAP NONE"
*DIVIDER /
*DELIMITER :
*BUS_DELIMITER []
*T_UNIT 1 NS
*C_UNIT 1 PF
*R_UNIT 1 OHM
*L_UNIT 1 HENRY

*NAME_MAP
*1 io_in[0]
*2 io_in[10]
*3 io_in[11]
*4 io_in[12]
*5 io_in[13]
*6 io_in[14]
*7 io_in[15]
*8 io_in[16]
*9 io_in[17]
*10 io_in[18]
*11 io_in[19]
*12 io_in[1]
*13 io_in[20]
*14 io_in[21]
*15 io_in[22]
*16 io_in[23]
*17 io_in[24]
*18 io_in[25]
*19 io_in[26]
*20 io_in[27]
*21 io_in[28]
*22 io_in[29]
*23 io_in[2]
*24 io_in[30]
*25 io_in[31]
*26 io_in[32]
*27 io_in[33]
*28 io_in[34]
*29 io_in[35]
*30 io_in[36]
*31 io_in[37]
*32 io_in[3]
*33 io_in[4]
*34 io_in[5]
*35 io_in[6]
*36 io_in[7]
*37 io_in[8]
*38 io_in[9]
*39 io_oeb[0]
*40 io_oeb[10]
*41 io_oeb[11]
*42 io_oeb[12]
*43 io_oeb[13]
*44 io_oeb[14]
*45 io_oeb[15]
*46 io_oeb[16]
*47 io_oeb[17]
*48 io_oeb[18]
*49 io_oeb[19]
*50 io_oeb[1]
*51 io_oeb[20]
*52 io_oeb[21]
*53 io_oeb[22]
*54 io_oeb[23]
*55 io_oeb[24]
*56 io_oeb[25]
*57 io_oeb[26]
*58 io_oeb[27]
*59 io_oeb[28]
*60 io_oeb[29]
*61 io_oeb[2]
*62 io_oeb[30]
*63 io_oeb[31]
*64 io_oeb[32]
*65 io_oeb[33]
*66 io_oeb[34]
*67 io_oeb[35]
*68 io_oeb[36]
*69 io_oeb[37]
*70 io_oeb[3]
*71 io_oeb[4]
*72 io_oeb[5]
*73 io_oeb[6]
*74 io_oeb[7]
*75 io_oeb[8]
*76 io_oeb[9]
*77 io_out[0]
*78 io_out[10]
*79 io_out[11]
*80 io_out[12]
*81 io_out[13]
*82 io_out[14]
*83 io_out[15]
*84 io_out[16]
*85 io_out[17]
*86 io_out[18]
*87 io_out[19]
*88 io_out[1]
*89 io_out[20]
*90 io_out[21]
*91 io_out[22]
*92 io_out[23]
*93 io_out[24]
*94 io_out[25]
*95 io_out[26]
*96 io_out[27]
*97 io_out[28]
*98 io_out[29]
*99 io_out[2]
*100 io_out[30]
*101 io_out[31]
*102 io_out[32]
*103 io_out[33]
*104 io_out[34]
*105 io_out[35]
*106 io_out[36]
*107 io_out[37]
*108 io_out[3]
*109 io_out[4]
*110 io_out[5]
*111 io_out[6]
*112 io_out[7]
*113 io_out[8]
*114 io_out[9]
*115 la_data_in[0]
*116 la_data_in[10]
*117 la_data_in[11]
*118 la_data_in[12]
*119 la_data_in[13]
*120 la_data_in[14]
*121 la_data_in[15]
*122 la_data_in[16]
*123 la_data_in[17]
*124 la_data_in[18]
*125 la_data_in[19]
*126 la_data_in[1]
*127 la_data_in[20]
*128 la_data_in[21]
*129 la_data_in[22]
*130 la_data_in[23]
*131 la_data_in[24]
*132 la_data_in[25]
*133 la_data_in[26]
*134 la_data_in[27]
*135 la_data_in[28]
*136 la_data_in[29]
*137 la_data_in[2]
*138 la_data_in[30]
*139 la_data_in[31]
*140 la_data_in[32]
*141 la_data_in[33]
*142 la_data_in[34]
*143 la_data_in[35]
*144 la_data_in[36]
*145 la_data_in[37]
*146 la_data_in[38]
*147 la_data_in[39]
*148 la_data_in[3]
*149 la_data_in[40]
*150 la_data_in[41]
*151 la_data_in[42]
*152 la_data_in[43]
*153 la_data_in[44]
*154 la_data_in[45]
*155 la_data_in[46]
*156 la_data_in[47]
*157 la_data_in[48]
*158 la_data_in[49]
*159 la_data_in[4]
*160 la_data_in[50]
*161 la_data_in[51]
*162 la_data_in[52]
*163 la_data_in[53]
*164 la_data_in[54]
*165 la_data_in[55]
*166 la_data_in[56]
*167 la_data_in[57]
*168 la_data_in[58]
*169 la_data_in[59]
*170 la_data_in[5]
*171 la_data_in[60]
*172 la_data_in[61]
*173 la_data_in[62]
*174 la_data_in[63]
*175 la_data_in[6]
*176 la_data_in[7]
*177 la_data_in[8]
*178 la_data_in[9]
*179 la_data_out[0]
*180 la_data_out[10]
*181 la_data_out[11]
*182 la_data_out[12]
*183 la_data_out[13]
*184 la_data_out[14]
*185 la_data_out[15]
*186 la_data_out[16]
*187 la_data_out[17]
*188 la_data_out[18]
*189 la_data_out[19]
*190 la_data_out[1]
*191 la_data_out[20]
*192 la_data_out[21]
*193 la_data_out[22]
*194 la_data_out[23]
*195 la_data_out[24]
*196 la_data_out[25]
*197 la_data_out[26]
*198 la_data_out[27]
*199 la_data_out[28]
*200 la_data_out[29]
*201 la_data_out[2]
*202 la_data_out[30]
*203 la_data_out[31]
*204 la_data_out[32]
*205 la_data_out[33]
*206 la_data_out[34]
*207 la_data_out[35]
*208 la_data_out[36]
*209 la_data_out[37]
*210 la_data_out[38]
*211 la_data_out[39]
*212 la_data_out[3]
*213 la_data_out[40]
*214 la_data_out[41]
*215 la_data_out[42]
*216 la_data_out[43]
*217 la_data_out[44]
*218 la_data_out[45]
*219 la_data_out[46]
*220 la_data_out[47]
*221 la_data_out[48]
*222 la_data_out[49]
*223 la_data_out[4]
*224 la_data_out[50]
*225 la_data_out[51]
*226 la_data_out[52]
*227 la_data_out[53]
*228 la_data_out[54]
*229 la_data_out[55]
*230 la_data_out[56]
*231 la_data_out[57]
*232 la_data_out[58]
*233 la_data_out[59]
*234 la_data_out[5]
*235 la_data_out[60]
*236 la_data_out[61]
*237 la_data_out[62]
*238 la_data_out[63]
*239 la_data_out[6]
*240 la_data_out[7]
*241 la_data_out[8]
*242 la_data_out[9]
*243 la_oenb[0]
*244 la_oenb[10]
*245 la_oenb[11]
*246 la_oenb[12]
*247 la_oenb[13]
*248 la_oenb[14]
*249 la_oenb[15]
*250 la_oenb[16]
*251 la_oenb[17]
*252 la_oenb[18]
*253 la_oenb[19]
*254 la_oenb[1]
*255 la_oenb[20]
*256 la_oenb[21]
*257 la_oenb[22]
*258 la_oenb[23]
*259 la_oenb[24]
*260 la_oenb[25]
*261 la_oenb[26]
*262 la_oenb[27]
*263 la_oenb[28]
*264 la_oenb[29]
*265 la_oenb[2]
*266 la_oenb[30]
*267 la_oenb[31]
*268 la_oenb[32]
*269 la_oenb[33]
*270 la_oenb[34]
*271 la_oenb[35]
*272 la_oenb[36]
*273 la_oenb[37]
*274 la_oenb[38]
*275 la_oenb[39]
*276 la_oenb[3]
*277 la_oenb[40]
*278 la_oenb[41]
*279 la_oenb[42]
*280 la_oenb[43]
*281 la_oenb[44]
*282 la_oenb[45]
*283 la_oenb[46]
*284 la_oenb[47]
*285 la_oenb[48]
*286 la_oenb[49]
*287 la_oenb[4]
*288 la_oenb[50]
*289 la_oenb[51]
*290 la_oenb[52]
*291 la_oenb[53]
*292 la_oenb[54]
*293 la_oenb[55]
*294 la_oenb[56]
*295 la_oenb[57]
*296 la_oenb[58]
*297 la_oenb[59]
*298 la_oenb[5]
*299 la_oenb[60]
*300 la_oenb[61]
*301 la_oenb[62]
*302 la_oenb[63]
*303 la_oenb[6]
*304 la_oenb[7]
*305 la_oenb[8]
*306 la_oenb[9]
*307 user_clock2
*308 user_irq[0]
*309 user_irq[1]
*310 user_irq[2]
*313 wb_clk_i
*314 wb_rst_i
*315 wbs_ack_o
*316 wbs_adr_i[0]
*317 wbs_adr_i[10]
*318 wbs_adr_i[11]
*319 wbs_adr_i[12]
*320 wbs_adr_i[13]
*321 wbs_adr_i[14]
*322 wbs_adr_i[15]
*323 wbs_adr_i[16]
*324 wbs_adr_i[17]
*325 wbs_adr_i[18]
*326 wbs_adr_i[19]
*327 wbs_adr_i[1]
*328 wbs_adr_i[20]
*329 wbs_adr_i[21]
*330 wbs_adr_i[22]
*331 wbs_adr_i[23]
*332 wbs_adr_i[24]
*333 wbs_adr_i[25]
*334 wbs_adr_i[26]
*335 wbs_adr_i[27]
*336 wbs_adr_i[28]
*337 wbs_adr_i[29]
*338 wbs_adr_i[2]
*339 wbs_adr_i[30]
*340 wbs_adr_i[31]
*341 wbs_adr_i[3]
*342 wbs_adr_i[4]
*343 wbs_adr_i[5]
*344 wbs_adr_i[6]
*345 wbs_adr_i[7]
*346 wbs_adr_i[8]
*347 wbs_adr_i[9]
*348 wbs_cyc_i
*349 wbs_dat_i[0]
*350 wbs_dat_i[10]
*351 wbs_dat_i[11]
*352 wbs_dat_i[12]
*353 wbs_dat_i[13]
*354 wbs_dat_i[14]
*355 wbs_dat_i[15]
*356 wbs_dat_i[16]
*357 wbs_dat_i[17]
*358 wbs_dat_i[18]
*359 wbs_dat_i[19]
*360 wbs_dat_i[1]
*361 wbs_dat_i[20]
*362 wbs_dat_i[21]
*363 wbs_dat_i[22]
*364 wbs_dat_i[23]
*365 wbs_dat_i[24]
*366 wbs_dat_i[25]
*367 wbs_dat_i[26]
*368 wbs_dat_i[27]
*369 wbs_dat_i[28]
*370 wbs_dat_i[29]
*371 wbs_dat_i[2]
*372 wbs_dat_i[30]
*373 wbs_dat_i[31]
*374 wbs_dat_i[3]
*375 wbs_dat_i[4]
*376 wbs_dat_i[5]
*377 wbs_dat_i[6]
*378 wbs_dat_i[7]
*379 wbs_dat_i[8]
*380 wbs_dat_i[9]
*381 wbs_dat_o[0]
*382 wbs_dat_o[10]
*383 wbs_dat_o[11]
*384 wbs_dat_o[12]
*385 wbs_dat_o[13]
*386 wbs_dat_o[14]
*387 wbs_dat_o[15]
*388 wbs_dat_o[16]
*389 wbs_dat_o[17]
*390 wbs_dat_o[18]
*391 wbs_dat_o[19]
*392 wbs_dat_o[1]
*393 wbs_dat_o[20]
*394 wbs_dat_o[21]
*395 wbs_dat_o[22]
*396 wbs_dat_o[23]
*397 wbs_dat_o[24]
*398 wbs_dat_o[25]
*399 wbs_dat_o[26]
*400 wbs_dat_o[27]
*401 wbs_dat_o[28]
*402 wbs_dat_o[29]
*403 wbs_dat_o[2]
*404 wbs_dat_o[30]
*405 wbs_dat_o[31]
*406 wbs_dat_o[3]
*407 wbs_dat_o[4]
*408 wbs_dat_o[5]
*409 wbs_dat_o[6]
*410 wbs_dat_o[7]
*411 wbs_dat_o[8]
*412 wbs_dat_o[9]
*413 wbs_sel_i[0]
*414 wbs_sel_i[1]
*415 wbs_sel_i[2]
*416 wbs_sel_i[3]
*417 wbs_stb_i
*418 wbs_we_i
*419 collatz

*PORTS
io_in[0] I
io_in[10] I
io_in[11] I
io_in[12] I
io_in[13] I
io_in[14] I
io_in[15] I
io_in[16] I
io_in[17] I
io_in[18] I
io_in[19] I
io_in[1] I
io_in[20] I
io_in[21] I
io_in[22] I
io_in[23] I
io_in[24] I
io_in[25] I
io_in[26] I
io_in[27] I
io_in[28] I
io_in[29] I
io_in[2] I
io_in[30] I
io_in[31] I
io_in[32] I
io_in[33] I
io_in[34] I
io_in[35] I
io_in[36] I
io_in[37] I
io_in[3] I
io_in[4] I
io_in[5] I
io_in[6] I
io_in[7] I
io_in[8] I
io_in[9] I
io_oeb[0] O
io_oeb[10] O
io_oeb[11] O
io_oeb[12] O
io_oeb[13] O
io_oeb[14] O
io_oeb[15] O
io_oeb[16] O
io_oeb[17] O
io_oeb[18] O
io_oeb[19] O
io_oeb[1] O
io_oeb[20] O
io_oeb[21] O
io_oeb[22] O
io_oeb[23] O
io_oeb[24] O
io_oeb[25] O
io_oeb[26] O
io_oeb[27] O
io_oeb[28] O
io_oeb[29] O
io_oeb[2] O
io_oeb[30] O
io_oeb[31] O
io_oeb[32] O
io_oeb[33] O
io_oeb[34] O
io_oeb[35] O
io_oeb[36] O
io_oeb[37] O
io_oeb[3] O
io_oeb[4] O
io_oeb[5] O
io_oeb[6] O
io_oeb[7] O
io_oeb[8] O
io_oeb[9] O
io_out[0] O
io_out[10] O
io_out[11] O
io_out[12] O
io_out[13] O
io_out[14] O
io_out[15] O
io_out[16] O
io_out[17] O
io_out[18] O
io_out[19] O
io_out[1] O
io_out[20] O
io_out[21] O
io_out[22] O
io_out[23] O
io_out[24] O
io_out[25] O
io_out[26] O
io_out[27] O
io_out[28] O
io_out[29] O
io_out[2] O
io_out[30] O
io_out[31] O
io_out[32] O
io_out[33] O
io_out[34] O
io_out[35] O
io_out[36] O
io_out[37] O
io_out[3] O
io_out[4] O
io_out[5] O
io_out[6] O
io_out[7] O
io_out[8] O
io_out[9] O
la_data_in[0] I
la_data_in[10] I
la_data_in[11] I
la_data_in[12] I
la_data_in[13] I
la_data_in[14] I
la_data_in[15] I
la_data_in[16] I
la_data_in[17] I
la_data_in[18] I
la_data_in[19] I
la_data_in[1] I
la_data_in[20] I
la_data_in[21] I
la_data_in[22] I
la_data_in[23] I
la_data_in[24] I
la_data_in[25] I
la_data_in[26] I
la_data_in[27] I
la_data_in[28] I
la_data_in[29] I
la_data_in[2] I
la_data_in[30] I
la_data_in[31] I
la_data_in[32] I
la_data_in[33] I
la_data_in[34] I
la_data_in[35] I
la_data_in[36] I
la_data_in[37] I
la_data_in[38] I
la_data_in[39] I
la_data_in[3] I
la_data_in[40] I
la_data_in[41] I
la_data_in[42] I
la_data_in[43] I
la_data_in[44] I
la_data_in[45] I
la_data_in[46] I
la_data_in[47] I
la_data_in[48] I
la_data_in[49] I
la_data_in[4] I
la_data_in[50] I
la_data_in[51] I
la_data_in[52] I
la_data_in[53] I
la_data_in[54] I
la_data_in[55] I
la_data_in[56] I
la_data_in[57] I
la_data_in[58] I
la_data_in[59] I
la_data_in[5] I
la_data_in[60] I
la_data_in[61] I
la_data_in[62] I
la_data_in[63] I
la_data_in[6] I
la_data_in[7] I
la_data_in[8] I
la_data_in[9] I
la_data_out[0] O
la_data_out[10] O
la_data_out[11] O
la_data_out[12] O
la_data_out[13] O
la_data_out[14] O
la_data_out[15] O
la_data_out[16] O
la_data_out[17] O
la_data_out[18] O
la_data_out[19] O
la_data_out[1] O
la_data_out[20] O
la_data_out[21] O
la_data_out[22] O
la_data_out[23] O
la_data_out[24] O
la_data_out[25] O
la_data_out[26] O
la_data_out[27] O
la_data_out[28] O
la_data_out[29] O
la_data_out[2] O
la_data_out[30] O
la_data_out[31] O
la_data_out[32] O
la_data_out[33] O
la_data_out[34] O
la_data_out[35] O
la_data_out[36] O
la_data_out[37] O
la_data_out[38] O
la_data_out[39] O
la_data_out[3] O
la_data_out[40] O
la_data_out[41] O
la_data_out[42] O
la_data_out[43] O
la_data_out[44] O
la_data_out[45] O
la_data_out[46] O
la_data_out[47] O
la_data_out[48] O
la_data_out[49] O
la_data_out[4] O
la_data_out[50] O
la_data_out[51] O
la_data_out[52] O
la_data_out[53] O
la_data_out[54] O
la_data_out[55] O
la_data_out[56] O
la_data_out[57] O
la_data_out[58] O
la_data_out[59] O
la_data_out[5] O
la_data_out[60] O
la_data_out[61] O
la_data_out[62] O
la_data_out[63] O
la_data_out[6] O
la_data_out[7] O
la_data_out[8] O
la_data_out[9] O
la_oenb[0] I
la_oenb[10] I
la_oenb[11] I
la_oenb[12] I
la_oenb[13] I
la_oenb[14] I
la_oenb[15] I
la_oenb[16] I
la_oenb[17] I
la_oenb[18] I
la_oenb[19] I
la_oenb[1] I
la_oenb[20] I
la_oenb[21] I
la_oenb[22] I
la_oenb[23] I
la_oenb[24] I
la_oenb[25] I
la_oenb[26] I
la_oenb[27] I
la_oenb[28] I
la_oenb[29] I
la_oenb[2] I
la_oenb[30] I
la_oenb[31] I
la_oenb[32] I
la_oenb[33] I
la_oenb[34] I
la_oenb[35] I
la_oenb[36] I
la_oenb[37] I
la_oenb[38] I
la_oenb[39] I
la_oenb[3] I
la_oenb[40] I
la_oenb[41] I
la_oenb[42] I
la_oenb[43] I
la_oenb[44] I
la_oenb[45] I
la_oenb[46] I
la_oenb[47] I
la_oenb[48] I
la_oenb[49] I
la_oenb[4] I
la_oenb[50] I
la_oenb[51] I
la_oenb[52] I
la_oenb[53] I
la_oenb[54] I
la_oenb[55] I
la_oenb[56] I
la_oenb[57] I
la_oenb[58] I
la_oenb[59] I
la_oenb[5] I
la_oenb[60] I
la_oenb[61] I
la_oenb[62] I
la_oenb[63] I
la_oenb[6] I
la_oenb[7] I
la_oenb[8] I
la_oenb[9] I
user_clock2 I
user_irq[0] O
user_irq[1] O
user_irq[2] O
wb_clk_i I
wb_rst_i I
wbs_ack_o O
wbs_adr_i[0] I
wbs_adr_i[10] I
wbs_adr_i[11] I
wbs_adr_i[12] I
wbs_adr_i[13] I
wbs_adr_i[14] I
wbs_adr_i[15] I
wbs_adr_i[16] I
wbs_adr_i[17] I
wbs_adr_i[18] I
wbs_adr_i[19] I
wbs_adr_i[1] I
wbs_adr_i[20] I
wbs_adr_i[21] I
wbs_adr_i[22] I
wbs_adr_i[23] I
wbs_adr_i[24] I
wbs_adr_i[25] I
wbs_adr_i[26] I
wbs_adr_i[27] I
wbs_adr_i[28] I
wbs_adr_i[29] I
wbs_adr_i[2] I
wbs_adr_i[30] I
wbs_adr_i[31] I
wbs_adr_i[3] I
wbs_adr_i[4] I
wbs_adr_i[5] I
wbs_adr_i[6] I
wbs_adr_i[7] I
wbs_adr_i[8] I
wbs_adr_i[9] I
wbs_cyc_i I
wbs_dat_i[0] I
wbs_dat_i[10] I
wbs_dat_i[11] I
wbs_dat_i[12] I
wbs_dat_i[13] I
wbs_dat_i[14] I
wbs_dat_i[15] I
wbs_dat_i[16] I
wbs_dat_i[17] I
wbs_dat_i[18] I
wbs_dat_i[19] I
wbs_dat_i[1] I
wbs_dat_i[20] I
wbs_dat_i[21] I
wbs_dat_i[22] I
wbs_dat_i[23] I
wbs_dat_i[24] I
wbs_dat_i[25] I
wbs_dat_i[26] I
wbs_dat_i[27] I
wbs_dat_i[28] I
wbs_dat_i[29] I
wbs_dat_i[2] I
wbs_dat_i[30] I
wbs_dat_i[31] I
wbs_dat_i[3] I
wbs_dat_i[4] I
wbs_dat_i[5] I
wbs_dat_i[6] I
wbs_dat_i[7] I
wbs_dat_i[8] I
wbs_dat_i[9] I
wbs_dat_o[0] O
wbs_dat_o[10] O
wbs_dat_o[11] O
wbs_dat_o[12] O
wbs_dat_o[13] O
wbs_dat_o[14] O
wbs_dat_o[15] O
wbs_dat_o[16] O
wbs_dat_o[17] O
wbs_dat_o[18] O
wbs_dat_o[19] O
wbs_dat_o[1] O
wbs_dat_o[20] O
wbs_dat_o[21] O
wbs_dat_o[22] O
wbs_dat_o[23] O
wbs_dat_o[24] O
wbs_dat_o[25] O
wbs_dat_o[26] O
wbs_dat_o[27] O
wbs_dat_o[28] O
wbs_dat_o[29] O
wbs_dat_o[2] O
wbs_dat_o[30] O
wbs_dat_o[31] O
wbs_dat_o[3] O
wbs_dat_o[4] O
wbs_dat_o[5] O
wbs_dat_o[6] O
wbs_dat_o[7] O
wbs_dat_o[8] O
wbs_dat_o[9] O
wbs_sel_i[0] I
wbs_sel_i[1] I
wbs_sel_i[2] I
wbs_sel_i[3] I
wbs_stb_i I
wbs_we_i I

*D_NET *313 0.0918701
*CONN
*P wb_clk_i I
*I *419:clk I *D collatz
*CAP
1 wb_clk_i 0.00108597
2 *419:clk 0.0138987
3 *313:13 0.0138987
4 *313:11 0.0309504
5 *313:10 0.0320363
*RES
1 wb_clk_i *313:10 16.875 
2 *313:10 *313:11 239.13 
3 *313:11 *313:13 4.5 
4 *313:13 *419:clk 108.585 
*END

*D_NET *349 0.0799381
*CONN
*P wbs_dat_i[0] I
*I *419:co[0] I *D collatz
*CAP
1 wbs_dat_i[0] 0.00176863
2 *419:co[0] 0.000885795
3 *349:14 0.0105493
4 *349:13 0.00966348
5 *349:11 0.0233047
6 *349:10 0.0250733
7 *349:10 wbs_dat_o[0] 0.000604228
8 *349:14 *408:10 0.00808876
*RES
1 wbs_dat_i[0] *349:10 20.835 
2 *349:10 *349:11 179.91 
3 *349:11 *349:13 4.5 
4 *349:13 *349:14 85.23 
5 *349:14 *419:co[0] 10.755 
*END

*D_NET *350 0.101129
*CONN
*P wbs_dat_i[10] I
*I *419:co[10] I *D collatz
*CAP
1 wbs_dat_i[10] 0.00180413
2 *419:co[10] 7.46899e-05
3 *350:11 0.0125551
4 *350:10 0.0142846
5 *350:10 *356:8 0.00291596
6 *350:11 *351:13 0.0694943
*RES
1 wbs_dat_i[10] *350:10 25.515 
2 *350:10 *350:11 183.51 
3 *350:11 *419:co[10] 0.585 
*END

*D_NET *351 0.0983656
*CONN
*P wbs_dat_i[11] I
*I *419:co[11] I *D collatz
*CAP
1 wbs_dat_i[11] 0.000235578
2 *419:co[11] 0.00104287
3 *351:13 0.0138258
4 *351:11 0.0130185
5 *419:co[11] *419:co[12] 0.000748515
6 *419:co[11] *381:8 0
7 *419:co[11] *408:10 0
8 *350:11 *351:13 0.0694943
*RES
1 wbs_dat_i[11] *351:11 2.295 
2 *351:11 *351:13 185.85 
3 *351:13 *419:co[11] 18.765 
*END

*D_NET *352 0.0595098
*CONN
*P wbs_dat_i[12] I
*I *419:co[12] I *D collatz
*CAP
1 wbs_dat_i[12] 0.00228456
2 *419:co[12] 0.00147474
3 *352:11 0.0268022
4 *352:10 0.0276121
5 *419:co[12] *381:8 0
6 *419:co[12] *408:10 0
7 *352:10 *355:11 0.00058768
8 *352:11 *353:11 0
9 *352:11 *354:11 0
10 *419:co[11] *419:co[12] 0.000748515
*RES
1 wbs_dat_i[12] *352:10 26.415 
2 *352:10 *352:11 172.89 
3 *352:11 *419:co[12] 21.105 
*END

*D_NET *353 0.0699933
*CONN
*P wbs_dat_i[13] I
*I *419:co[13] I *D collatz
*CAP
1 wbs_dat_i[13] 0.00225199
2 *419:co[13] 0.000240241
3 *353:11 0.0300864
4 *353:10 0.0320981
5 *353:10 wbs_dat_o[11] 0.000504836
6 *353:10 *354:10 0.0048118
7 *352:11 *353:11 0
*RES
1 wbs_dat_i[13] *353:10 33.075 
2 *353:10 *353:11 183.15 
3 *353:11 *419:co[13] 1.845 
*END

*D_NET *354 0.0653947
*CONN
*P wbs_dat_i[14] I
*I *419:co[14] I *D collatz
*CAP
1 wbs_dat_i[14] 0.00181803
2 *419:co[14] 0.000166616
3 *354:11 0.0240889
4 *354:10 0.0257403
5 *354:10 wbs_dat_o[11] 0.00845756
6 *354:10 *411:7 0.000311535
7 *352:11 *354:11 0
8 *353:10 *354:10 0.0048118
*RES
1 wbs_dat_i[14] *354:10 39.375 
2 *354:10 *354:11 183.33 
3 *354:11 *419:co[14] 1.305 
*END

*D_NET *355 0.0597414
*CONN
*P wbs_dat_i[15] I
*I *419:co[15] I *D collatz
*CAP
1 wbs_dat_i[15] 0.00382693
2 *419:co[15] 9.76714e-05
3 *355:11 0.0235963
4 *355:10 0.0273255
5 *355:10 wbs_dat_o[12] 0.00430727
6 *352:10 *355:11 0.00058768
*RES
1 wbs_dat_i[15] *355:10 48.195 
2 *355:10 *355:11 180.99 
3 *355:11 *419:co[15] 0.765 
*END

*D_NET *356 0.0860239
*CONN
*P wbs_dat_i[16] I
*I *419:st I *D collatz
*CAP
1 wbs_dat_i[16] 0.00117164
2 *419:st 0.000680426
3 *356:11 0.0269855
4 *356:10 0.026305
5 *356:8 0.00741677
6 *356:7 0.00858841
7 *356:7 *387:7 0
8 *356:8 wbs_dat_o[11] 0.0119602
9 *356:8 wbs_dat_o[15] 0
10 *356:8 *380:10 0
11 *356:11 *377:11 0
12 *356:11 *379:10 0
13 *350:10 *356:8 0.00291596
*RES
1 wbs_dat_i[16] *356:7 13.365 
2 *356:7 *356:8 74.79 
3 *356:8 *356:10 4.5 
4 *356:10 *356:11 201.15 
5 *356:11 *419:st 9.225 
*END

*D_NET *360 0.0721959
*CONN
*P wbs_dat_i[1] I
*I *419:co[1] I *D collatz
*CAP
1 wbs_dat_i[1] 0.00151037
2 *419:co[1] 0.000692947
3 *360:11 0.0236167
4 *360:10 0.0229238
5 *360:8 0.0103755
6 *360:7 0.0118859
7 *419:co[1] *371:15 0.000586481
8 *419:co[1] *408:10 0.000604228
9 *360:7 wbs_dat_o[1] 0
*RES
1 wbs_dat_i[1] *360:7 16.065 
2 *360:7 *360:8 78.75 
3 *360:8 *360:10 4.5 
4 *360:10 *360:11 175.59 
5 *360:11 *419:co[1] 16.245 
*END

*D_NET *371 0.0690475
*CONN
*P wbs_dat_i[2] I
*I *419:co[2] I *D collatz
*CAP
1 wbs_dat_i[2] 0.00192926
2 *419:co[2] 0.00023556
3 *371:15 0.0233335
4 *371:14 0.0230979
5 *371:12 0.0089678
6 *371:11 0.0108971
7 *419:co[1] *371:15 0.000586481
*RES
1 wbs_dat_i[2] *371:11 19.305 
2 *371:11 *371:12 68.13 
3 *371:12 *371:14 4.5 
4 *371:14 *371:15 178.29 
5 *371:15 *419:co[2] 1.845 
*END

*D_NET *374 0.0664719
*CONN
*P wbs_dat_i[3] I
*I *419:co[3] I *D collatz
*CAP
1 wbs_dat_i[3] 0.00447007
2 *419:co[3] 0.00023556
3 *374:19 0.0210201
4 *374:18 0.0207845
5 *374:16 0.00774577
6 *374:15 0.0122158
*RES
1 wbs_dat_i[3] *374:15 39.105 
2 *374:15 *374:16 59.49 
3 *374:16 *374:18 4.5 
4 *374:18 *374:19 159.39 
5 *374:19 *419:co[3] 1.845 
*END

*D_NET *375 0.0647929
*CONN
*P wbs_dat_i[4] I
*I *419:co[4] I *D collatz
*CAP
1 wbs_dat_i[4] 0.00541404
2 *419:co[4] 0.000166616
3 *375:19 0.0202239
4 *375:18 0.0200573
5 *375:16 0.00675851
6 *375:15 0.0121725
7 *375:19 *380:11 0
*RES
1 wbs_dat_i[4] *375:15 45.945 
2 *375:15 *375:16 51.39 
3 *375:16 *375:18 4.5 
4 *375:18 *375:19 153.99 
5 *375:19 *419:co[4] 1.305 
*END

*D_NET *376 0.0621928
*CONN
*P wbs_dat_i[5] I
*I *419:co[5] I *D collatz
*CAP
1 wbs_dat_i[5] 0.00334291
2 *419:co[5] 9.76714e-05
3 *376:17 0.0226537
4 *376:16 0.0276499
5 *376:13 0.00843678
6 *376:13 wbs_dat_o[5] 1.18575e-05
7 *376:17 *380:11 0
*RES
1 wbs_dat_i[5] *376:13 36.405 
2 *376:13 *376:16 43.83 
3 *376:16 *376:17 172.89 
4 *376:17 *419:co[5] 0.765 
*END

*D_NET *377 0.0649526
*CONN
*P wbs_dat_i[6] I
*I *419:co[6] I *D collatz
*CAP
1 wbs_dat_i[6] 0.0046993
2 *419:co[6] 0.00170979
3 *377:11 0.0239777
4 *377:10 0.0269672
5 *419:co[6] *378:11 0.000556889
6 *419:co[6] *410:10 0.00704169
7 *356:11 *377:11 0
*RES
1 wbs_dat_i[6] *377:10 44.415 
2 *377:10 *377:11 170.55 
3 *377:11 *419:co[6] 31.905 
*END

*D_NET *378 0.0642451
*CONN
*P wbs_dat_i[7] I
*I *419:co[7] I *D collatz
*CAP
1 wbs_dat_i[7] 0.00254499
2 *419:co[7] 0.00023556
3 *378:11 0.0211398
4 *378:10 0.0245454
5 *378:7 0.00618612
6 *378:7 *410:13 0.00903638
7 *419:co[6] *378:11 0.000556889
*RES
1 wbs_dat_i[7] *378:7 34.965 
2 *378:7 *378:10 32.13 
3 *378:10 *378:11 162.09 
4 *378:11 *419:co[7] 1.845 
*END

*D_NET *379 0.055955
*CONN
*P wbs_dat_i[8] I
*I *419:co[8] I *D collatz
*CAP
1 wbs_dat_i[8] 0.00487313
2 *419:co[8] 0.00023556
3 *379:11 0.0231044
4 *379:10 0.0277419
5 *356:11 *379:10 0
*RES
1 wbs_dat_i[8] *379:10 46.215 
2 *379:10 *379:11 175.59 
3 *379:11 *419:co[8] 1.845 
*END

*D_NET *380 0.0542356
*CONN
*P wbs_dat_i[9] I
*I *419:co[9] I *D collatz
*CAP
1 wbs_dat_i[9] 0.00190394
2 *419:co[9] 0.0023331
3 *380:11 0.0252139
4 *380:10 0.0247847
5 *419:co[9] *381:8 0
6 *419:co[9] *408:10 0
7 *356:8 *380:10 0
8 *375:19 *380:11 0
9 *376:17 *380:11 0
*RES
1 wbs_dat_i[9] *380:10 23.535 
2 *380:10 *380:11 175.59 
3 *380:11 *419:co[9] 26.685 
*END

*D_NET *381 0.0838563
*CONN
*P wbs_dat_o[0] O
*I *419:x[0] O *D collatz
*CAP
1 wbs_dat_o[0] 0.001448
2 *419:x[0] 0.00068004
3 *381:11 0.024369
4 *381:10 0.022921
5 *381:8 0.0153515
6 *381:7 0.0160315
7 *381:7 *392:12 5.69587e-05
8 *381:7 *392:13 0.00239421
9 *419:co[11] *381:8 0
10 *419:co[12] *381:8 0
11 *419:co[9] *381:8 0
12 *349:10 wbs_dat_o[0] 0.000604228
*RES
1 *419:x[0] *381:7 12.645 
2 *381:7 *381:8 117.81 
3 *381:8 *381:10 4.5 
4 *381:10 *381:11 177.03 
5 *381:11 wbs_dat_o[0] 20.655 
*END

*D_NET *382 0.0683396
*CONN
*P wbs_dat_o[10] O
*I *419:x[10] O *D collatz
*CAP
1 wbs_dat_o[10] 0.00228419
2 *419:x[10] 0.00219653
3 *382:14 0.00930977
4 *382:13 0.00702558
5 *382:11 0.0220204
6 *382:10 0.0242169
7 *382:10 *383:12 6.84313e-05
8 *382:10 *383:13 0.00121782
*RES
1 *419:x[10] *382:10 27.855 
2 *382:10 *382:11 170.19 
3 *382:11 *382:13 4.5 
4 *382:13 *382:14 52.83 
5 *382:14 wbs_dat_o[10] 21.465 
*END

*D_NET *383 0.0744026
*CONN
*P wbs_dat_o[11] O
*I *419:x[11] O *D collatz
*CAP
1 wbs_dat_o[11] 0.00212507
2 *419:x[11] 0.000663827
3 *383:13 0.0254331
4 *383:12 0.0239718
5 *383:12 *384:7 0
6 *353:10 wbs_dat_o[11] 0.000504836
7 *354:10 wbs_dat_o[11] 0.00845756
8 *356:8 wbs_dat_o[11] 0.0119602
9 *382:10 *383:12 6.84313e-05
10 *382:10 *383:13 0.00121782
*RES
1 *419:x[11] *383:12 14.1789 
2 *383:12 *383:13 181.17 
3 *383:13 wbs_dat_o[11] 48.195 
*END

*D_NET *384 0.0584895
*CONN
*P wbs_dat_o[12] O
*I *419:x[12] O *D collatz
*CAP
1 wbs_dat_o[12] 0.00342177
2 *419:x[12] 0.00023556
3 *384:7 0.0268555
4 *384:5 0.0236693
5 *355:10 wbs_dat_o[12] 0.00430727
6 *383:12 *384:7 0
*RES
1 *419:x[12] *384:5 1.845 
2 *384:5 *384:7 180.63 
3 *384:7 wbs_dat_o[12] 44.595 
*END

*D_NET *385 0.0584254
*CONN
*P wbs_dat_o[13] O
*I *419:x[13] O *D collatz
*CAP
1 wbs_dat_o[13] 0.00259536
2 *419:x[13] 0.000166616
3 *385:7 0.0267292
4 *385:5 0.0243005
5 wbs_dat_o[13] wbs_dat_o[14] 0.00124488
6 wbs_dat_o[13] *412:10 0.00338887
7 *385:7 wbs_dat_o[15] 0
*RES
1 *419:x[13] *385:5 1.305 
2 *385:5 *385:7 186.03 
3 *385:7 wbs_dat_o[13] 32.715 
*END

*D_NET *386 0.0541194
*CONN
*P wbs_dat_o[14] O
*I *419:x[14] O *D collatz
*CAP
1 wbs_dat_o[14] 0.00213702
2 *419:x[14] 9.76714e-05
3 *386:7 0.0263396
4 *386:5 0.0243002
5 *386:7 wbs_dat_o[15] 0
6 wbs_dat_o[13] wbs_dat_o[14] 0.00124488
*RES
1 *419:x[14] *386:5 0.765 
2 *386:5 *386:7 186.39 
3 *386:7 wbs_dat_o[14] 25.875 
*END

*D_NET *387 0.0512236
*CONN
*P wbs_dat_o[15] O
*I *419:x[15] O *D collatz
*CAP
1 wbs_dat_o[15] 0.00156472
2 *419:x[15] 2.87269e-05
3 *387:7 0.0255831
4 *387:5 0.0240471
5 *356:7 *387:7 0
6 *356:8 wbs_dat_o[15] 0
7 *385:7 wbs_dat_o[15] 0
8 *386:7 wbs_dat_o[15] 0
*RES
1 *419:x[15] *387:5 0.225 
2 *387:5 *387:7 185.13 
3 *387:7 wbs_dat_o[15] 20.655 
*END

*D_NET *388 0.0598907
*CONN
*P wbs_dat_o[16] O
*I *419:bs O *D collatz
*CAP
1 wbs_dat_o[16] 0.00102227
2 *419:bs 0.000427865
3 *388:8 0.0295175
4 *388:7 0.0289231
*RES
1 *419:bs *388:7 7.965 
2 *388:7 *388:8 220.23 
3 *388:8 wbs_dat_o[16] 7.875 
*END

*D_NET *392 0.081889
*CONN
*P wbs_dat_o[1] O
*I *419:x[1] O *D collatz
*CAP
1 wbs_dat_o[1] 0.00307265
2 *419:x[1] 0.000598249
3 *392:16 0.0176348
4 *392:15 0.0145622
5 *392:13 0.0214858
6 *392:12 0.0220841
7 *392:12 *403:7 0
8 *360:7 wbs_dat_o[1] 0
9 *381:7 *392:12 5.69587e-05
10 *381:7 *392:13 0.00239421
*RES
1 *419:x[1] *392:12 13.545 
2 *392:12 *392:13 168.21 
3 *392:13 *392:15 4.5 
4 *392:15 *392:16 110.79 
5 *392:16 wbs_dat_o[1] 28.485 
*END

*D_NET *403 0.0781646
*CONN
*P wbs_dat_o[2] O
*I *419:x[2] O *D collatz
*CAP
1 wbs_dat_o[2] 0.000810134
2 *419:x[2] 0.00023556
3 *403:18 0.00558495
4 *403:10 0.0163448
5 *403:9 0.0115699
6 *403:7 0.0214321
7 *403:5 0.0216676
8 *403:18 wbs_dat_o[3] 0.000519591
9 *392:12 *403:7 0
*RES
1 *419:x[2] *403:5 1.845 
2 *403:5 *403:7 164.79 
3 *403:7 *403:9 4.5 
4 *403:9 *403:10 87.93 
5 *403:10 *403:18 47.52 
6 *403:18 wbs_dat_o[2] 6.165 
*END

*D_NET *406 0.0747796
*CONN
*P wbs_dat_o[3] O
*I *419:x[3] O *D collatz
*CAP
1 wbs_dat_o[3] 0.000888422
2 *419:x[3] 0.000166616
3 *406:16 0.00571165
4 *406:10 0.0164103
5 *406:9 0.0115871
6 *406:7 0.0196647
7 *406:5 0.0198313
8 *403:18 wbs_dat_o[3] 0.000519591
*RES
1 *419:x[3] *406:5 1.305 
2 *406:5 *406:7 151.29 
3 *406:7 *406:9 4.5 
4 *406:9 *406:10 87.93 
5 *406:10 *406:16 45.54 
6 *406:16 wbs_dat_o[3] 11.925 
*END

*D_NET *407 0.0725829
*CONN
*P wbs_dat_o[4] O
*I *419:x[4] O *D collatz
*CAP
1 wbs_dat_o[4] 0.00166804
2 *419:x[4] 9.76714e-05
3 *407:13 0.00741458
4 *407:10 0.0159385
5 *407:9 0.010192
6 *407:7 0.0185873
7 *407:5 0.0186849
*RES
1 *419:x[4] *407:5 0.765 
2 *407:5 *407:7 143.19 
3 *407:7 *407:9 4.5 
4 *407:9 *407:10 77.13 
5 *407:10 *407:13 47.79 
6 *407:13 wbs_dat_o[4] 19.035 
*END

*D_NET *408 0.0921906
*CONN
*P wbs_dat_o[5] O
*I *419:x[5] O *D collatz
*CAP
1 wbs_dat_o[5] 0.00195455
2 *419:x[5] 0.000534152
3 *408:13 0.0254759
4 *408:12 0.0235213
5 *408:10 0.00362087
6 *408:9 0.00415502
7 *408:9 *409:7 0.000588239
8 *408:10 *410:10 0.0236252
9 *408:13 wbs_dat_o[6] 1.04678e-05
10 *419:co[11] *408:10 0
11 *419:co[12] *408:10 0
12 *419:co[1] *408:10 0.000604228
13 *419:co[9] *408:10 0
14 *349:14 *408:10 0.00808876
15 *376:13 wbs_dat_o[5] 1.18575e-05
*RES
1 *419:x[5] *408:9 10.035 
2 *408:9 *408:10 66.33 
3 *408:10 *408:12 4.5 
4 *408:12 *408:13 180.27 
5 *408:13 wbs_dat_o[5] 24.255 
*END

*D_NET *409 0.0683927
*CONN
*P wbs_dat_o[6] O
*I *419:x[6] O *D collatz
*CAP
1 wbs_dat_o[6] 0.00120259
2 *419:x[6] 0.00023556
3 *409:13 0.00820278
4 *409:12 0.00700019
5 *409:10 0.00850402
6 *409:9 0.00850402
7 *409:7 0.0169546
8 *409:5 0.0171902
9 *408:9 *409:7 0.000588239
10 *408:13 wbs_dat_o[6] 1.04678e-05
*RES
1 *419:x[6] *409:5 1.845 
2 *409:5 *409:7 132.39 
3 *409:7 *409:9 4.5 
4 *409:9 *409:10 64.17 
5 *409:10 *409:12 4.5 
6 *409:12 *409:13 52.83 
7 *409:13 wbs_dat_o[6] 18.135 
*END

*D_NET *410 0.0953606
*CONN
*P wbs_dat_o[7] O
*I *419:x[7] O *D collatz
*CAP
1 wbs_dat_o[7] 0.00142353
2 *419:x[7] 0.000967277
3 *410:13 0.0234472
4 *410:12 0.0220237
5 *410:10 0.00341414
6 *410:9 0.00438141
7 *419:co[6] *410:10 0.00704169
8 *378:7 *410:13 0.00903638
9 *408:10 *410:10 0.0236252
*RES
1 *419:x[7] *410:9 11.475 
2 *410:9 *410:10 62.37 
3 *410:10 *410:12 4.5 
4 *410:12 *410:13 180.09 
5 *410:13 wbs_dat_o[7] 19.755 
*END

*D_NET *411 0.0768377
*CONN
*P wbs_dat_o[8] O
*I *419:x[8] O *D collatz
*CAP
1 wbs_dat_o[8] 0.000810134
2 *419:x[8] 0.000166616
3 *411:10 0.00587636
4 *411:9 0.00506622
5 *411:7 0.0241268
6 *411:5 0.0242934
7 *411:10 *412:10 0.0161867
8 *354:10 *411:7 0.000311535
*RES
1 *419:x[8] *411:5 1.305 
2 *411:5 *411:7 186.39 
3 *411:7 *411:9 4.5 
4 *411:9 *411:10 52.29 
5 *411:10 wbs_dat_o[8] 10.665 
*END

*D_NET *412 0.0766064
*CONN
*P wbs_dat_o[9] O
*I *419:x[9] O *D collatz
*CAP
1 wbs_dat_o[9] 0.000849092
2 *419:x[9] 9.76714e-05
3 *412:10 0.00421299
4 *412:9 0.0033639
5 *412:7 0.0242047
6 *412:5 0.0243024
7 wbs_dat_o[13] *412:10 0.00338887
8 *411:10 *412:10 0.0161867
*RES
1 *419:x[9] *412:5 0.765 
2 *412:5 *412:7 186.21 
3 *412:7 *412:9 4.5 
4 *412:9 *412:10 45.81 
5 *412:10 wbs_dat_o[9] 10.845 
*END
