*SPEF "ieee 1481-1999"
*DESIGN "user_project_wrapper"
*DATE "11:11:11 Fri 11 11, 1111"
*VENDOR "OpenRCX"
*PROGRAM "Parallel Extraction"
*VERSION "1.0"
*DESIGN_FLOW "NAME_SCOPE LOCAL" "PIN_CAP NONE"
*DIVIDER /
*DELIMITER :
*BUS_DELIMITER []
*T_UNIT 1 NS
*C_UNIT 1 PF
*R_UNIT 1 OHM
*L_UNIT 1 HENRY

*NAME_MAP
*1 io_in[0]
*2 io_in[10]
*3 io_in[11]
*4 io_in[12]
*5 io_in[13]
*6 io_in[14]
*7 io_in[15]
*8 io_in[16]
*9 io_in[17]
*10 io_in[18]
*11 io_in[19]
*12 io_in[1]
*13 io_in[20]
*14 io_in[21]
*15 io_in[22]
*16 io_in[23]
*17 io_in[24]
*18 io_in[25]
*19 io_in[26]
*20 io_in[27]
*21 io_in[28]
*22 io_in[29]
*23 io_in[2]
*24 io_in[30]
*25 io_in[31]
*26 io_in[32]
*27 io_in[33]
*28 io_in[34]
*29 io_in[35]
*30 io_in[36]
*31 io_in[37]
*32 io_in[3]
*33 io_in[4]
*34 io_in[5]
*35 io_in[6]
*36 io_in[7]
*37 io_in[8]
*38 io_in[9]
*39 io_oeb[0]
*40 io_oeb[10]
*41 io_oeb[11]
*42 io_oeb[12]
*43 io_oeb[13]
*44 io_oeb[14]
*45 io_oeb[15]
*46 io_oeb[16]
*47 io_oeb[17]
*48 io_oeb[18]
*49 io_oeb[19]
*50 io_oeb[1]
*51 io_oeb[20]
*52 io_oeb[21]
*53 io_oeb[22]
*54 io_oeb[23]
*55 io_oeb[24]
*56 io_oeb[25]
*57 io_oeb[26]
*58 io_oeb[27]
*59 io_oeb[28]
*60 io_oeb[29]
*61 io_oeb[2]
*62 io_oeb[30]
*63 io_oeb[31]
*64 io_oeb[32]
*65 io_oeb[33]
*66 io_oeb[34]
*67 io_oeb[35]
*68 io_oeb[36]
*69 io_oeb[37]
*70 io_oeb[3]
*71 io_oeb[4]
*72 io_oeb[5]
*73 io_oeb[6]
*74 io_oeb[7]
*75 io_oeb[8]
*76 io_oeb[9]
*77 io_out[0]
*78 io_out[10]
*79 io_out[11]
*80 io_out[12]
*81 io_out[13]
*82 io_out[14]
*83 io_out[15]
*84 io_out[16]
*85 io_out[17]
*86 io_out[18]
*87 io_out[19]
*88 io_out[1]
*89 io_out[20]
*90 io_out[21]
*91 io_out[22]
*92 io_out[23]
*93 io_out[24]
*94 io_out[25]
*95 io_out[26]
*96 io_out[27]
*97 io_out[28]
*98 io_out[29]
*99 io_out[2]
*100 io_out[30]
*101 io_out[31]
*102 io_out[32]
*103 io_out[33]
*104 io_out[34]
*105 io_out[35]
*106 io_out[36]
*107 io_out[37]
*108 io_out[3]
*109 io_out[4]
*110 io_out[5]
*111 io_out[6]
*112 io_out[7]
*113 io_out[8]
*114 io_out[9]
*115 la_data_in[0]
*116 la_data_in[10]
*117 la_data_in[11]
*118 la_data_in[12]
*119 la_data_in[13]
*120 la_data_in[14]
*121 la_data_in[15]
*122 la_data_in[16]
*123 la_data_in[17]
*124 la_data_in[18]
*125 la_data_in[19]
*126 la_data_in[1]
*127 la_data_in[20]
*128 la_data_in[21]
*129 la_data_in[22]
*130 la_data_in[23]
*131 la_data_in[24]
*132 la_data_in[25]
*133 la_data_in[26]
*134 la_data_in[27]
*135 la_data_in[28]
*136 la_data_in[29]
*137 la_data_in[2]
*138 la_data_in[30]
*139 la_data_in[31]
*140 la_data_in[32]
*141 la_data_in[33]
*142 la_data_in[34]
*143 la_data_in[35]
*144 la_data_in[36]
*145 la_data_in[37]
*146 la_data_in[38]
*147 la_data_in[39]
*148 la_data_in[3]
*149 la_data_in[40]
*150 la_data_in[41]
*151 la_data_in[42]
*152 la_data_in[43]
*153 la_data_in[44]
*154 la_data_in[45]
*155 la_data_in[46]
*156 la_data_in[47]
*157 la_data_in[48]
*158 la_data_in[49]
*159 la_data_in[4]
*160 la_data_in[50]
*161 la_data_in[51]
*162 la_data_in[52]
*163 la_data_in[53]
*164 la_data_in[54]
*165 la_data_in[55]
*166 la_data_in[56]
*167 la_data_in[57]
*168 la_data_in[58]
*169 la_data_in[59]
*170 la_data_in[5]
*171 la_data_in[60]
*172 la_data_in[61]
*173 la_data_in[62]
*174 la_data_in[63]
*175 la_data_in[6]
*176 la_data_in[7]
*177 la_data_in[8]
*178 la_data_in[9]
*179 la_data_out[0]
*180 la_data_out[10]
*181 la_data_out[11]
*182 la_data_out[12]
*183 la_data_out[13]
*184 la_data_out[14]
*185 la_data_out[15]
*186 la_data_out[16]
*187 la_data_out[17]
*188 la_data_out[18]
*189 la_data_out[19]
*190 la_data_out[1]
*191 la_data_out[20]
*192 la_data_out[21]
*193 la_data_out[22]
*194 la_data_out[23]
*195 la_data_out[24]
*196 la_data_out[25]
*197 la_data_out[26]
*198 la_data_out[27]
*199 la_data_out[28]
*200 la_data_out[29]
*201 la_data_out[2]
*202 la_data_out[30]
*203 la_data_out[31]
*204 la_data_out[32]
*205 la_data_out[33]
*206 la_data_out[34]
*207 la_data_out[35]
*208 la_data_out[36]
*209 la_data_out[37]
*210 la_data_out[38]
*211 la_data_out[39]
*212 la_data_out[3]
*213 la_data_out[40]
*214 la_data_out[41]
*215 la_data_out[42]
*216 la_data_out[43]
*217 la_data_out[44]
*218 la_data_out[45]
*219 la_data_out[46]
*220 la_data_out[47]
*221 la_data_out[48]
*222 la_data_out[49]
*223 la_data_out[4]
*224 la_data_out[50]
*225 la_data_out[51]
*226 la_data_out[52]
*227 la_data_out[53]
*228 la_data_out[54]
*229 la_data_out[55]
*230 la_data_out[56]
*231 la_data_out[57]
*232 la_data_out[58]
*233 la_data_out[59]
*234 la_data_out[5]
*235 la_data_out[60]
*236 la_data_out[61]
*237 la_data_out[62]
*238 la_data_out[63]
*239 la_data_out[6]
*240 la_data_out[7]
*241 la_data_out[8]
*242 la_data_out[9]
*243 la_oenb[0]
*244 la_oenb[10]
*245 la_oenb[11]
*246 la_oenb[12]
*247 la_oenb[13]
*248 la_oenb[14]
*249 la_oenb[15]
*250 la_oenb[16]
*251 la_oenb[17]
*252 la_oenb[18]
*253 la_oenb[19]
*254 la_oenb[1]
*255 la_oenb[20]
*256 la_oenb[21]
*257 la_oenb[22]
*258 la_oenb[23]
*259 la_oenb[24]
*260 la_oenb[25]
*261 la_oenb[26]
*262 la_oenb[27]
*263 la_oenb[28]
*264 la_oenb[29]
*265 la_oenb[2]
*266 la_oenb[30]
*267 la_oenb[31]
*268 la_oenb[32]
*269 la_oenb[33]
*270 la_oenb[34]
*271 la_oenb[35]
*272 la_oenb[36]
*273 la_oenb[37]
*274 la_oenb[38]
*275 la_oenb[39]
*276 la_oenb[3]
*277 la_oenb[40]
*278 la_oenb[41]
*279 la_oenb[42]
*280 la_oenb[43]
*281 la_oenb[44]
*282 la_oenb[45]
*283 la_oenb[46]
*284 la_oenb[47]
*285 la_oenb[48]
*286 la_oenb[49]
*287 la_oenb[4]
*288 la_oenb[50]
*289 la_oenb[51]
*290 la_oenb[52]
*291 la_oenb[53]
*292 la_oenb[54]
*293 la_oenb[55]
*294 la_oenb[56]
*295 la_oenb[57]
*296 la_oenb[58]
*297 la_oenb[59]
*298 la_oenb[5]
*299 la_oenb[60]
*300 la_oenb[61]
*301 la_oenb[62]
*302 la_oenb[63]
*303 la_oenb[6]
*304 la_oenb[7]
*305 la_oenb[8]
*306 la_oenb[9]
*307 user_clock2
*308 user_irq[0]
*309 user_irq[1]
*310 user_irq[2]
*313 wb_clk_i
*314 wb_rst_i
*315 wbs_ack_o
*316 wbs_adr_i[0]
*317 wbs_adr_i[10]
*318 wbs_adr_i[11]
*319 wbs_adr_i[12]
*320 wbs_adr_i[13]
*321 wbs_adr_i[14]
*322 wbs_adr_i[15]
*323 wbs_adr_i[16]
*324 wbs_adr_i[17]
*325 wbs_adr_i[18]
*326 wbs_adr_i[19]
*327 wbs_adr_i[1]
*328 wbs_adr_i[20]
*329 wbs_adr_i[21]
*330 wbs_adr_i[22]
*331 wbs_adr_i[23]
*332 wbs_adr_i[24]
*333 wbs_adr_i[25]
*334 wbs_adr_i[26]
*335 wbs_adr_i[27]
*336 wbs_adr_i[28]
*337 wbs_adr_i[29]
*338 wbs_adr_i[2]
*339 wbs_adr_i[30]
*340 wbs_adr_i[31]
*341 wbs_adr_i[3]
*342 wbs_adr_i[4]
*343 wbs_adr_i[5]
*344 wbs_adr_i[6]
*345 wbs_adr_i[7]
*346 wbs_adr_i[8]
*347 wbs_adr_i[9]
*348 wbs_cyc_i
*349 wbs_dat_i[0]
*350 wbs_dat_i[10]
*351 wbs_dat_i[11]
*352 wbs_dat_i[12]
*353 wbs_dat_i[13]
*354 wbs_dat_i[14]
*355 wbs_dat_i[15]
*356 wbs_dat_i[16]
*357 wbs_dat_i[17]
*358 wbs_dat_i[18]
*359 wbs_dat_i[19]
*360 wbs_dat_i[1]
*361 wbs_dat_i[20]
*362 wbs_dat_i[21]
*363 wbs_dat_i[22]
*364 wbs_dat_i[23]
*365 wbs_dat_i[24]
*366 wbs_dat_i[25]
*367 wbs_dat_i[26]
*368 wbs_dat_i[27]
*369 wbs_dat_i[28]
*370 wbs_dat_i[29]
*371 wbs_dat_i[2]
*372 wbs_dat_i[30]
*373 wbs_dat_i[31]
*374 wbs_dat_i[3]
*375 wbs_dat_i[4]
*376 wbs_dat_i[5]
*377 wbs_dat_i[6]
*378 wbs_dat_i[7]
*379 wbs_dat_i[8]
*380 wbs_dat_i[9]
*381 wbs_dat_o[0]
*382 wbs_dat_o[10]
*383 wbs_dat_o[11]
*384 wbs_dat_o[12]
*385 wbs_dat_o[13]
*386 wbs_dat_o[14]
*387 wbs_dat_o[15]
*388 wbs_dat_o[16]
*389 wbs_dat_o[17]
*390 wbs_dat_o[18]
*391 wbs_dat_o[19]
*392 wbs_dat_o[1]
*393 wbs_dat_o[20]
*394 wbs_dat_o[21]
*395 wbs_dat_o[22]
*396 wbs_dat_o[23]
*397 wbs_dat_o[24]
*398 wbs_dat_o[25]
*399 wbs_dat_o[26]
*400 wbs_dat_o[27]
*401 wbs_dat_o[28]
*402 wbs_dat_o[29]
*403 wbs_dat_o[2]
*404 wbs_dat_o[30]
*405 wbs_dat_o[31]
*406 wbs_dat_o[3]
*407 wbs_dat_o[4]
*408 wbs_dat_o[5]
*409 wbs_dat_o[6]
*410 wbs_dat_o[7]
*411 wbs_dat_o[8]
*412 wbs_dat_o[9]
*413 wbs_sel_i[0]
*414 wbs_sel_i[1]
*415 wbs_sel_i[2]
*416 wbs_sel_i[3]
*417 wbs_stb_i
*418 wbs_we_i
*419 collatz

*PORTS
io_in[0] I
io_in[10] I
io_in[11] I
io_in[12] I
io_in[13] I
io_in[14] I
io_in[15] I
io_in[16] I
io_in[17] I
io_in[18] I
io_in[19] I
io_in[1] I
io_in[20] I
io_in[21] I
io_in[22] I
io_in[23] I
io_in[24] I
io_in[25] I
io_in[26] I
io_in[27] I
io_in[28] I
io_in[29] I
io_in[2] I
io_in[30] I
io_in[31] I
io_in[32] I
io_in[33] I
io_in[34] I
io_in[35] I
io_in[36] I
io_in[37] I
io_in[3] I
io_in[4] I
io_in[5] I
io_in[6] I
io_in[7] I
io_in[8] I
io_in[9] I
io_oeb[0] O
io_oeb[10] O
io_oeb[11] O
io_oeb[12] O
io_oeb[13] O
io_oeb[14] O
io_oeb[15] O
io_oeb[16] O
io_oeb[17] O
io_oeb[18] O
io_oeb[19] O
io_oeb[1] O
io_oeb[20] O
io_oeb[21] O
io_oeb[22] O
io_oeb[23] O
io_oeb[24] O
io_oeb[25] O
io_oeb[26] O
io_oeb[27] O
io_oeb[28] O
io_oeb[29] O
io_oeb[2] O
io_oeb[30] O
io_oeb[31] O
io_oeb[32] O
io_oeb[33] O
io_oeb[34] O
io_oeb[35] O
io_oeb[36] O
io_oeb[37] O
io_oeb[3] O
io_oeb[4] O
io_oeb[5] O
io_oeb[6] O
io_oeb[7] O
io_oeb[8] O
io_oeb[9] O
io_out[0] O
io_out[10] O
io_out[11] O
io_out[12] O
io_out[13] O
io_out[14] O
io_out[15] O
io_out[16] O
io_out[17] O
io_out[18] O
io_out[19] O
io_out[1] O
io_out[20] O
io_out[21] O
io_out[22] O
io_out[23] O
io_out[24] O
io_out[25] O
io_out[26] O
io_out[27] O
io_out[28] O
io_out[29] O
io_out[2] O
io_out[30] O
io_out[31] O
io_out[32] O
io_out[33] O
io_out[34] O
io_out[35] O
io_out[36] O
io_out[37] O
io_out[3] O
io_out[4] O
io_out[5] O
io_out[6] O
io_out[7] O
io_out[8] O
io_out[9] O
la_data_in[0] I
la_data_in[10] I
la_data_in[11] I
la_data_in[12] I
la_data_in[13] I
la_data_in[14] I
la_data_in[15] I
la_data_in[16] I
la_data_in[17] I
la_data_in[18] I
la_data_in[19] I
la_data_in[1] I
la_data_in[20] I
la_data_in[21] I
la_data_in[22] I
la_data_in[23] I
la_data_in[24] I
la_data_in[25] I
la_data_in[26] I
la_data_in[27] I
la_data_in[28] I
la_data_in[29] I
la_data_in[2] I
la_data_in[30] I
la_data_in[31] I
la_data_in[32] I
la_data_in[33] I
la_data_in[34] I
la_data_in[35] I
la_data_in[36] I
la_data_in[37] I
la_data_in[38] I
la_data_in[39] I
la_data_in[3] I
la_data_in[40] I
la_data_in[41] I
la_data_in[42] I
la_data_in[43] I
la_data_in[44] I
la_data_in[45] I
la_data_in[46] I
la_data_in[47] I
la_data_in[48] I
la_data_in[49] I
la_data_in[4] I
la_data_in[50] I
la_data_in[51] I
la_data_in[52] I
la_data_in[53] I
la_data_in[54] I
la_data_in[55] I
la_data_in[56] I
la_data_in[57] I
la_data_in[58] I
la_data_in[59] I
la_data_in[5] I
la_data_in[60] I
la_data_in[61] I
la_data_in[62] I
la_data_in[63] I
la_data_in[6] I
la_data_in[7] I
la_data_in[8] I
la_data_in[9] I
la_data_out[0] O
la_data_out[10] O
la_data_out[11] O
la_data_out[12] O
la_data_out[13] O
la_data_out[14] O
la_data_out[15] O
la_data_out[16] O
la_data_out[17] O
la_data_out[18] O
la_data_out[19] O
la_data_out[1] O
la_data_out[20] O
la_data_out[21] O
la_data_out[22] O
la_data_out[23] O
la_data_out[24] O
la_data_out[25] O
la_data_out[26] O
la_data_out[27] O
la_data_out[28] O
la_data_out[29] O
la_data_out[2] O
la_data_out[30] O
la_data_out[31] O
la_data_out[32] O
la_data_out[33] O
la_data_out[34] O
la_data_out[35] O
la_data_out[36] O
la_data_out[37] O
la_data_out[38] O
la_data_out[39] O
la_data_out[3] O
la_data_out[40] O
la_data_out[41] O
la_data_out[42] O
la_data_out[43] O
la_data_out[44] O
la_data_out[45] O
la_data_out[46] O
la_data_out[47] O
la_data_out[48] O
la_data_out[49] O
la_data_out[4] O
la_data_out[50] O
la_data_out[51] O
la_data_out[52] O
la_data_out[53] O
la_data_out[54] O
la_data_out[55] O
la_data_out[56] O
la_data_out[57] O
la_data_out[58] O
la_data_out[59] O
la_data_out[5] O
la_data_out[60] O
la_data_out[61] O
la_data_out[62] O
la_data_out[63] O
la_data_out[6] O
la_data_out[7] O
la_data_out[8] O
la_data_out[9] O
la_oenb[0] I
la_oenb[10] I
la_oenb[11] I
la_oenb[12] I
la_oenb[13] I
la_oenb[14] I
la_oenb[15] I
la_oenb[16] I
la_oenb[17] I
la_oenb[18] I
la_oenb[19] I
la_oenb[1] I
la_oenb[20] I
la_oenb[21] I
la_oenb[22] I
la_oenb[23] I
la_oenb[24] I
la_oenb[25] I
la_oenb[26] I
la_oenb[27] I
la_oenb[28] I
la_oenb[29] I
la_oenb[2] I
la_oenb[30] I
la_oenb[31] I
la_oenb[32] I
la_oenb[33] I
la_oenb[34] I
la_oenb[35] I
la_oenb[36] I
la_oenb[37] I
la_oenb[38] I
la_oenb[39] I
la_oenb[3] I
la_oenb[40] I
la_oenb[41] I
la_oenb[42] I
la_oenb[43] I
la_oenb[44] I
la_oenb[45] I
la_oenb[46] I
la_oenb[47] I
la_oenb[48] I
la_oenb[49] I
la_oenb[4] I
la_oenb[50] I
la_oenb[51] I
la_oenb[52] I
la_oenb[53] I
la_oenb[54] I
la_oenb[55] I
la_oenb[56] I
la_oenb[57] I
la_oenb[58] I
la_oenb[59] I
la_oenb[5] I
la_oenb[60] I
la_oenb[61] I
la_oenb[62] I
la_oenb[63] I
la_oenb[6] I
la_oenb[7] I
la_oenb[8] I
la_oenb[9] I
user_clock2 I
user_irq[0] O
user_irq[1] O
user_irq[2] O
wb_clk_i I
wb_rst_i I
wbs_ack_o O
wbs_adr_i[0] I
wbs_adr_i[10] I
wbs_adr_i[11] I
wbs_adr_i[12] I
wbs_adr_i[13] I
wbs_adr_i[14] I
wbs_adr_i[15] I
wbs_adr_i[16] I
wbs_adr_i[17] I
wbs_adr_i[18] I
wbs_adr_i[19] I
wbs_adr_i[1] I
wbs_adr_i[20] I
wbs_adr_i[21] I
wbs_adr_i[22] I
wbs_adr_i[23] I
wbs_adr_i[24] I
wbs_adr_i[25] I
wbs_adr_i[26] I
wbs_adr_i[27] I
wbs_adr_i[28] I
wbs_adr_i[29] I
wbs_adr_i[2] I
wbs_adr_i[30] I
wbs_adr_i[31] I
wbs_adr_i[3] I
wbs_adr_i[4] I
wbs_adr_i[5] I
wbs_adr_i[6] I
wbs_adr_i[7] I
wbs_adr_i[8] I
wbs_adr_i[9] I
wbs_cyc_i I
wbs_dat_i[0] I
wbs_dat_i[10] I
wbs_dat_i[11] I
wbs_dat_i[12] I
wbs_dat_i[13] I
wbs_dat_i[14] I
wbs_dat_i[15] I
wbs_dat_i[16] I
wbs_dat_i[17] I
wbs_dat_i[18] I
wbs_dat_i[19] I
wbs_dat_i[1] I
wbs_dat_i[20] I
wbs_dat_i[21] I
wbs_dat_i[22] I
wbs_dat_i[23] I
wbs_dat_i[24] I
wbs_dat_i[25] I
wbs_dat_i[26] I
wbs_dat_i[27] I
wbs_dat_i[28] I
wbs_dat_i[29] I
wbs_dat_i[2] I
wbs_dat_i[30] I
wbs_dat_i[31] I
wbs_dat_i[3] I
wbs_dat_i[4] I
wbs_dat_i[5] I
wbs_dat_i[6] I
wbs_dat_i[7] I
wbs_dat_i[8] I
wbs_dat_i[9] I
wbs_dat_o[0] O
wbs_dat_o[10] O
wbs_dat_o[11] O
wbs_dat_o[12] O
wbs_dat_o[13] O
wbs_dat_o[14] O
wbs_dat_o[15] O
wbs_dat_o[16] O
wbs_dat_o[17] O
wbs_dat_o[18] O
wbs_dat_o[19] O
wbs_dat_o[1] O
wbs_dat_o[20] O
wbs_dat_o[21] O
wbs_dat_o[22] O
wbs_dat_o[23] O
wbs_dat_o[24] O
wbs_dat_o[25] O
wbs_dat_o[26] O
wbs_dat_o[27] O
wbs_dat_o[28] O
wbs_dat_o[29] O
wbs_dat_o[2] O
wbs_dat_o[30] O
wbs_dat_o[31] O
wbs_dat_o[3] O
wbs_dat_o[4] O
wbs_dat_o[5] O
wbs_dat_o[6] O
wbs_dat_o[7] O
wbs_dat_o[8] O
wbs_dat_o[9] O
wbs_sel_i[0] I
wbs_sel_i[1] I
wbs_sel_i[2] I
wbs_sel_i[3] I
wbs_stb_i I
wbs_we_i I

*D_NET *313 0.198926
*CONN
*P wb_clk_i I
*I *419:clk I *D collatz
*CAP
1 wb_clk_i 0.00150266
2 *419:clk 0.000683647
3 *313:14 0.0474277
4 *313:13 0.0467441
5 *313:11 0.0505326
6 *313:10 0.0520352
*RES
1 wb_clk_i *313:10 19.575 
2 *313:10 *313:11 390.33 
3 *313:11 *313:13 4.5 
4 *313:13 *313:14 366.03 
5 *313:14 *419:clk 9.585 
*END

*D_NET *349 0.177251
*CONN
*P wbs_dat_i[0] I
*I *419:co[0] I *D collatz
*CAP
1 wbs_dat_i[0] 0.00178457
2 *419:co[0] 0.000774747
3 *349:14 0.0423448
4 *349:13 0.0415701
5 *349:11 0.0400361
6 *349:10 0.0418207
7 *419:co[0] *387:7 6.26109e-05
8 *349:10 wbs_dat_o[0] 0.000611937
9 *349:14 *374:22 7.30614e-05
10 *349:14 *387:10 0.00782983
11 *349:14 *406:10 0.000342934
*RES
1 wbs_dat_i[0] *349:10 21.015 
2 *349:10 *349:11 309.33 
3 *349:11 *349:13 4.5 
4 *349:13 *349:14 344.43 
5 *349:14 *419:co[0] 10.035 
*END

*D_NET *350 0.156651
*CONN
*P wbs_dat_i[10] I
*I *419:co[10] I *D collatz
*CAP
1 wbs_dat_i[10] 0.0011908
2 *419:co[10] 0.00237858
3 *350:11 0.0424543
4 *350:10 0.0400758
5 *350:8 0.0317727
6 *350:7 0.0329635
7 *419:co[10] *419:co[12] 0
8 *419:co[10] *419:co[13] 0.00147214
9 *419:co[10] *419:co[7] 0.00386156
10 *419:co[10] *374:22 0.000481853
11 *350:7 *382:11 0
12 *350:8 wbs_dat_o[11] 0
13 *350:8 *386:14 0
*RES
1 wbs_dat_i[10] *350:7 13.365 
2 *350:7 *350:8 246.15 
3 *350:8 *350:10 4.5 
4 *350:10 *350:11 307.89 
5 *350:11 *419:co[10] 34.875 
*END

*D_NET *351 0.150343
*CONN
*P wbs_dat_i[11] I
*I *419:co[11] I *D collatz
*CAP
1 wbs_dat_i[11] 0.00155148
2 *419:co[11] 0.0399933
3 *351:10 0.0399933
4 *351:8 0.0334533
5 *351:7 0.0350048
6 *419:co[11] *419:co[12] 0.00034697
*RES
1 wbs_dat_i[11] *351:7 16.065 
2 *351:7 *351:8 260.55 
3 *351:8 *351:10 4.5 
4 *351:10 *419:co[11] 309.465 
*END

*D_NET *352 0.203773
*CONN
*P wbs_dat_i[12] I
*I *419:co[12] I *D collatz
*CAP
1 wbs_dat_i[12] 0.0410143
2 *419:co[12] 0.00101686
3 *352:8 0.02136
4 *352:7 0.0203431
5 *352:5 0.0410143
6 *419:co[12] *419:co[13] 0.000512714
7 *352:8 *392:8 0.0781645
8 *419:co[10] *419:co[12] 0
9 *419:co[11] *419:co[12] 0.00034697
*RES
1 wbs_dat_i[12] *352:5 314.145 
2 *352:5 *352:7 4.5 
3 *352:7 *352:8 251.19 
4 *352:8 *419:co[12] 23.265 
*END

*D_NET *353 0.149973
*CONN
*P wbs_dat_i[13] I
*I *419:co[13] I *D collatz
*CAP
1 wbs_dat_i[13] 0.000166634
2 *419:co[13] 0.00217647
3 *353:16 0.0328604
4 *353:15 0.0306839
5 *353:13 0.0406445
6 *353:11 0.0408111
7 *419:co[13] *419:co[8] 0.000644877
8 *419:co[13] *419:co[9] 0
9 *353:11 *385:11 0
10 *419:co[10] *419:co[13] 0.00147214
11 *419:co[12] *419:co[13] 0.000512714
*RES
1 wbs_dat_i[13] *353:11 1.755 
2 *353:11 *353:13 311.31 
3 *353:13 *353:15 4.5 
4 *353:15 *353:16 237.69 
5 *353:16 *419:co[13] 33.705 
*END

*D_NET *354 0.144735
*CONN
*P wbs_dat_i[14] I
*I *419:co[14] I *D collatz
*CAP
1 wbs_dat_i[14] 0.00191217
2 *419:co[14] 0.0397286
3 *354:10 0.0397286
4 *354:8 0.0307267
5 *354:7 0.0326389
*RES
1 wbs_dat_i[14] *354:7 18.765 
2 *354:7 *354:8 239.49 
3 *354:8 *354:10 4.5 
4 *354:10 *419:co[14] 306.765 
*END

*D_NET *355 0.142782
*CONN
*P wbs_dat_i[15] I
*I *419:co[15] I *D collatz
*CAP
1 wbs_dat_i[15] 0.00230014
2 *419:co[15] 0.0393406
3 *355:10 0.0393406
4 *355:8 0.0297502
5 *355:7 0.0320503
6 *355:7 wbs_dat_o[15] 0
*RES
1 wbs_dat_i[15] *355:7 21.465 
2 *355:7 *355:8 232.47 
3 *355:8 *355:10 4.5 
4 *355:10 *419:co[15] 304.065 
*END

*D_NET *356 0.133929
*CONN
*P wbs_dat_i[16] I
*I *419:st I *D collatz
*CAP
1 wbs_dat_i[16] 0.00470252
2 *419:st 0.000632701
3 *356:19 0.0428442
4 *356:18 0.0422115
5 *356:16 0.0194147
6 *356:15 0.0241172
7 *356:15 *388:14 6.64156e-06
*RES
1 wbs_dat_i[16] *356:15 40.005 
2 *356:15 *356:16 152.55 
3 *356:16 *356:18 4.5 
4 *356:18 *356:19 323.19 
5 *356:19 *419:st 8.685 
*END

*D_NET *360 0.171437
*CONN
*P wbs_dat_i[1] I
*I *419:co[1] I *D collatz
*CAP
1 wbs_dat_i[1] 0.00476639
2 *419:co[1] 0.0370175
3 *360:18 0.0370175
4 *360:16 0.0439346
5 *360:15 0.048701
*RES
1 wbs_dat_i[1] *360:15 41.625 
2 *360:15 *360:16 340.83 
3 *360:16 *360:18 4.5 
4 *360:18 *419:co[1] 285.165 
*END

*D_NET *371 0.168284
*CONN
*P wbs_dat_i[2] I
*I *419:co[2] I *D collatz
*CAP
1 wbs_dat_i[2] 0.00120747
2 *419:co[2] 0.00166729
3 *371:14 0.0439056
4 *371:13 0.0422383
5 *371:11 0.039029
6 *371:10 0.0402365
7 *419:co[2] *378:11 0
*RES
1 wbs_dat_i[2] *371:10 18.135 
2 *371:10 *371:11 301.23 
3 *371:11 *371:13 4.5 
4 *371:13 *371:14 328.23 
5 *371:14 *419:co[2] 16.965 
*END

*D_NET *374 0.173182
*CONN
*P wbs_dat_i[3] I
*I *419:co[3] I *D collatz
*CAP
1 wbs_dat_i[3] 0.002686
2 *419:co[3] 0.000477344
3 *374:22 0.00447809
4 *374:21 0.00400075
5 *374:19 0.038964
6 *374:18 0.038964
7 *374:16 0.03485
8 *374:15 0.037536
9 *374:22 *419:co[7] 0.000121466
10 *374:22 *387:10 0.00468072
11 *374:22 *406:10 0.00586837
12 *419:co[10] *374:22 0.000481853
13 *349:14 *374:22 7.30614e-05
*RES
1 wbs_dat_i[3] *374:15 25.605 
2 *374:15 *374:16 271.35 
3 *374:16 *374:18 4.5 
4 *374:18 *374:19 297.81 
5 *374:19 *374:21 4.5 
6 *374:21 *374:22 49.59 
7 *374:22 *419:co[3] 8.145 
*END

*D_NET *375 0.164549
*CONN
*P wbs_dat_i[4] I
*I *419:co[4] I *D collatz
*CAP
1 wbs_dat_i[4] 0.00326002
2 *419:co[4] 0.0387789
3 *375:18 0.0387789
4 *375:16 0.0402354
5 *375:15 0.0434954
*RES
1 wbs_dat_i[4] *375:15 29.745 
2 *375:15 *375:16 312.21 
3 *375:16 *375:18 4.5 
4 *375:18 *419:co[4] 298.665 
*END

*D_NET *376 0.16217
*CONN
*P wbs_dat_i[5] I
*I *419:co[5] I *D collatz
*CAP
1 wbs_dat_i[5] 0.00436471
2 *419:co[5] 0.0380575
3 *376:20 0.0380575
4 *376:18 0.0384718
5 *376:17 0.0428365
6 *376:17 wbs_dat_o[5] 0.000382218
*RES
1 wbs_dat_i[5] *376:17 44.685 
2 *376:17 *376:18 299.61 
3 *376:18 *376:20 4.5 
4 *376:20 *419:co[5] 293.265 
*END

*D_NET *377 0.160309
*CONN
*P wbs_dat_i[6] I
*I *419:co[6] I *D collatz
*CAP
1 wbs_dat_i[6] 0.00353146
2 *419:co[6] 0.0384022
3 *377:18 0.0384022
4 *377:16 0.0382175
5 *377:15 0.0417489
6 *377:15 *408:11 0
7 *377:15 *409:11 6.64156e-06
*RES
1 wbs_dat_i[6] *377:15 31.905 
2 *377:15 *377:16 297.63 
3 *377:16 *377:18 4.5 
4 *377:18 *419:co[6] 295.965 
*END

*D_NET *378 0.160618
*CONN
*P wbs_dat_i[7] I
*I *419:co[7] I *D collatz
*CAP
1 wbs_dat_i[7] 0.00401457
2 *419:co[7] 0.00112843
3 *378:11 0.0383144
4 *378:10 0.037186
5 *378:8 0.0359887
6 *378:7 0.0400032
7 *419:co[10] *419:co[7] 0.00386156
8 *419:co[2] *378:11 0
9 *374:22 *419:co[7] 0.000121466
*RES
1 wbs_dat_i[7] *378:7 34.965 
2 *378:7 *378:8 279.45 
3 *378:8 *378:10 4.5 
4 *378:10 *378:11 286.47 
5 *378:11 *419:co[7] 22.815 
*END

*D_NET *379 0.156673
*CONN
*P wbs_dat_i[8] I
*I *419:co[8] I *D collatz
*CAP
1 wbs_dat_i[8] 0.00526696
2 *419:co[8] 0.0363776
3 *379:18 0.0363776
4 *379:16 0.0363696
5 *379:15 0.0416366
6 *379:15 *410:11 0
7 *419:co[13] *419:co[8] 0.000644877
*RES
1 wbs_dat_i[8] *379:15 44.865 
2 *379:15 *379:16 283.05 
3 *379:16 *379:18 4.5 
4 *379:18 *419:co[8] 282.465 
*END

*D_NET *380 0.15526
*CONN
*P wbs_dat_i[9] I
*I *419:co[9] I *D collatz
*CAP
1 wbs_dat_i[9] 0.00580325
2 *419:co[9] 0.0362702
3 *380:18 0.0362702
4 *380:16 0.0355565
5 *380:15 0.0413598
6 *419:co[13] *419:co[9] 0
*RES
1 wbs_dat_i[9] *380:15 48.645 
2 *380:15 *380:16 277.11 
3 *380:16 *380:18 4.5 
4 *380:18 *419:co[9] 279.765 
*END

*D_NET *381 0.164491
*CONN
*P wbs_dat_o[0] O
*I *419:x[0] O *D collatz
*CAP
1 wbs_dat_o[0] 0.00238252
2 *419:x[0] 0.000212579
3 *381:13 0.007888
4 *381:10 0.043915
5 *381:9 0.0384096
6 *381:7 0.0354286
7 *381:5 0.0356412
8 wbs_dat_o[0] wbs_dat_o[1] 1.85309e-06
9 *349:10 wbs_dat_o[0] 0.000611937
*RES
1 *419:x[0] *381:5 1.665 
2 *381:5 *381:7 271.71 
3 *381:7 *381:9 4.5 
4 *381:9 *381:10 298.53 
5 *381:10 *381:13 46.71 
6 *381:13 wbs_dat_o[0] 28.575 
*END

*D_NET *382 0.157502
*CONN
*P wbs_dat_o[10] O
*I *419:x[10] O *D collatz
*CAP
1 wbs_dat_o[10] 0.000143652
2 *419:x[10] 0.0170992
3 *382:11 0.0249942
4 *382:10 0.0248505
5 *382:8 0.0366577
6 *382:7 0.0366577
7 *382:5 0.0170992
8 *350:7 *382:11 0
*RES
1 *419:x[10] *382:5 131.265 
2 *382:5 *382:7 4.5 
3 *382:7 *382:8 231.21 
4 *382:8 *382:10 4.5 
5 *382:10 *382:11 189.81 
6 *382:11 wbs_dat_o[10] 1.575 
*END

*D_NET *383 0.141323
*CONN
*P wbs_dat_o[11] O
*I *419:x[11] O *D collatz
*CAP
1 wbs_dat_o[11] 0.00149827
2 *419:x[11] 0.0345771
3 *383:11 0.00782498
4 *383:10 0.0063267
5 *383:8 0.0282446
6 *383:7 0.0282446
7 *383:5 0.0345771
8 wbs_dat_o[11] *412:8 2.92939e-05
9 *383:5 *384:15 0
10 *350:8 wbs_dat_o[11] 0
*RES
1 *419:x[11] *383:5 266.265 
2 *383:5 *383:7 4.5 
3 *383:7 *383:8 221.31 
4 *383:8 *383:10 4.5 
5 *383:10 *383:11 47.43 
6 *383:11 wbs_dat_o[11] 18.135 
*END

*D_NET *384 0.139696
*CONN
*P wbs_dat_o[12] O
*I *419:x[12] O *D collatz
*CAP
1 wbs_dat_o[12] 0.00249626
2 *419:x[12] 0.00218082
3 *384:19 0.0399834
4 *384:18 0.0374872
5 *384:16 0.0276836
6 *384:15 0.0298644
7 *383:5 *384:15 0
*RES
1 *419:x[12] *384:15 20.745 
2 *384:15 *384:16 215.91 
3 *384:16 *384:18 4.5 
4 *384:18 *384:19 287.64 
5 *384:19 wbs_dat_o[12] 18.765 
*END

*D_NET *385 0.138661
*CONN
*P wbs_dat_o[13] O
*I *419:x[13] O *D collatz
*CAP
1 wbs_dat_o[13] 0.000212597
2 *419:x[13] 0.00241595
3 *385:11 0.0397716
4 *385:10 0.039559
5 *385:8 0.027143
6 *385:7 0.0295589
7 *353:11 *385:11 0
*RES
1 *419:x[13] *385:7 22.365 
2 *385:7 *385:8 210.69 
3 *385:8 *385:10 4.5 
4 *385:10 *385:11 303.21 
5 *385:11 wbs_dat_o[13] 2.115 
*END

*D_NET *386 0.135637
*CONN
*P wbs_dat_o[14] O
*I *419:x[14] O *D collatz
*CAP
1 wbs_dat_o[14] 0.00100694
2 *419:x[14] 0.0359656
3 *386:14 0.00654361
4 *386:8 0.030813
5 *386:7 0.0252764
6 *386:5 0.0359656
7 *386:14 *412:8 6.55917e-05
8 *350:8 *386:14 0
*RES
1 *419:x[14] *386:5 277.065 
2 *386:5 *386:7 4.5 
3 *386:7 *386:8 198.09 
4 *386:8 *386:14 49.5 
5 *386:14 wbs_dat_o[14] 11.925 
*END

*D_NET *387 0.144529
*CONN
*P wbs_dat_o[15] O
*I *419:x[15] O *D collatz
*CAP
1 wbs_dat_o[15] 0.00643927
2 *419:x[15] 0.000637466
3 *387:16 0.00643927
4 *387:14 0.0193976
5 *387:13 0.0193976
6 *387:11 0.0352477
7 *387:10 0.0360241
8 *387:7 0.00141382
9 *387:10 *406:10 0.00695928
10 *419:co[0] *387:7 6.26109e-05
11 *349:14 *387:10 0.00782983
12 *355:7 wbs_dat_o[15] 0
13 *374:22 *387:10 0.00468072
*RES
1 *419:x[15] *387:7 8.505 
2 *387:7 *387:10 48.15 
3 *387:10 *387:11 270.45 
4 *387:11 *387:13 4.5 
5 *387:13 *387:14 152.55 
6 *387:14 *387:16 4.5 
7 *387:16 wbs_dat_o[15] 48.285 
*END

*D_NET *388 0.152569
*CONN
*P wbs_dat_o[16] O
*I *419:bs O *D collatz
*CAP
1 wbs_dat_o[16] 0.000281541
2 *419:bs 0.000320076
3 *388:14 0.0073207
4 *388:13 0.00703916
5 *388:11 0.0292534
6 *388:10 0.0292534
7 *388:8 0.0393872
8 *388:7 0.0397073
9 *356:15 *388:14 6.64156e-06
*RES
1 *419:bs *388:7 7.065 
2 *388:7 *388:8 304.29 
3 *388:8 *388:10 4.5 
4 *388:10 *388:11 226.89 
5 *388:11 *388:13 4.5 
6 *388:13 *388:14 52.11 
7 *388:14 wbs_dat_o[16] 2.655 
*END

*D_NET *392 0.214891
*CONN
*P wbs_dat_o[1] O
*I *419:x[1] O *D collatz
*CAP
1 wbs_dat_o[1] 0.00128095
2 *419:x[1] 0.000993848
3 *392:11 0.0411462
4 *392:10 0.0398652
5 *392:8 0.0262223
6 *392:7 0.0272161
7 wbs_dat_o[0] wbs_dat_o[1] 1.85309e-06
8 *352:8 *392:8 0.0781645
*RES
1 *419:x[1] *392:7 11.565 
2 *392:7 *392:8 299.61 
3 *392:8 *392:10 4.5 
4 *392:10 *392:11 307.71 
5 *392:11 wbs_dat_o[1] 18.135 
*END

*D_NET *403 0.158967
*CONN
*P wbs_dat_o[2] O
*I *419:x[2] O *D collatz
*CAP
1 wbs_dat_o[2] 0.00163277
2 *419:x[2] 0.0343248
3 *403:11 0.0081654
4 *403:10 0.00653263
5 *403:8 0.0369935
6 *403:7 0.0369935
7 *403:5 0.0343248
*RES
1 *419:x[2] *403:5 263.565 
2 *403:5 *403:7 4.5 
3 *403:7 *403:8 288.27 
4 *403:8 *403:10 4.5 
5 *403:10 *403:11 50.13 
6 *403:11 wbs_dat_o[2] 20.655 
*END

*D_NET *406 0.18134
*CONN
*P wbs_dat_o[3] O
*I *419:x[3] O *D collatz
*CAP
1 wbs_dat_o[3] 0.000166634
2 *419:x[3] 0.00104035
3 *406:17 0.0122097
4 *406:16 0.012043
5 *406:14 0.0415604
6 *406:13 0.0415604
7 *406:11 0.0292744
8 *406:10 0.0303147
9 *349:14 *406:10 0.000342934
10 *374:22 *406:10 0.00586837
11 *387:10 *406:10 0.00695928
*RES
1 *419:x[3] *406:10 33.255 
2 *406:10 *406:11 224.73 
3 *406:11 *406:13 4.5 
4 *406:13 *406:14 263.25 
5 *406:14 *406:16 4.5 
6 *406:16 *406:17 92.61 
7 *406:17 wbs_dat_o[3] 1.755 
*END

*D_NET *407 0.154383
*CONN
*P wbs_dat_o[4] O
*I *419:x[4] O *D collatz
*CAP
1 wbs_dat_o[4] 0.00166804
2 *419:x[4] 0.0339481
3 *407:11 0.00876155
4 *407:10 0.00709351
5 *407:8 0.0344818
6 *407:7 0.0344818
7 *407:5 0.0339481
*RES
1 *419:x[4] *407:5 260.865 
2 *407:5 *407:7 4.5 
3 *407:7 *407:8 268.29 
4 *407:8 *407:10 4.5 
5 *407:10 *407:11 54.09 
6 *407:11 wbs_dat_o[4] 19.035 
*END

*D_NET *408 0.152073
*CONN
*P wbs_dat_o[5] O
*I *419:x[5] O *D collatz
*CAP
1 wbs_dat_o[5] 0.00127433
2 *419:x[5] 0.0293798
3 *408:11 0.0127964
4 *408:10 0.0115221
5 *408:8 0.0336689
6 *408:7 0.0336689
7 *408:5 0.0293798
8 *376:17 wbs_dat_o[5] 0.000382218
9 *377:15 *408:11 0
*RES
1 *419:x[5] *408:5 225.765 
2 *408:5 *408:7 4.5 
3 *408:7 *408:8 262.35 
4 *408:8 *408:10 4.5 
5 *408:10 *408:11 87.93 
6 *408:11 wbs_dat_o[5] 19.215 
*END

*D_NET *409 0.151167
*CONN
*P wbs_dat_o[6] O
*I *419:x[6] O *D collatz
*CAP
1 wbs_dat_o[6] 0.000281541
2 *419:x[6] 0.0290191
3 *409:11 0.0131293
4 *409:10 0.0128478
5 *409:8 0.0334318
6 *409:7 0.0334318
7 *409:5 0.0290191
8 *377:15 *409:11 6.64156e-06
*RES
1 *419:x[6] *409:5 223.065 
2 *409:5 *409:7 4.5 
3 *409:7 *409:8 260.37 
4 *409:8 *409:10 4.5 
5 *409:10 *409:11 98.01 
6 *409:11 wbs_dat_o[6] 2.655 
*END

*D_NET *410 0.148526
*CONN
*P wbs_dat_o[7] O
*I *419:x[7] O *D collatz
*CAP
1 wbs_dat_o[7] 0.00150803
2 *419:x[7] 0.0286585
3 *410:11 0.0137834
4 *410:10 0.0122754
5 *410:8 0.0318211
6 *410:7 0.0318211
7 *410:5 0.0286585
8 *379:15 *410:11 0
*RES
1 *419:x[7] *410:5 220.365 
2 *410:5 *410:7 4.5 
3 *410:7 *410:8 247.77 
4 *410:8 *410:10 4.5 
5 *410:10 *410:11 93.33 
6 *410:11 wbs_dat_o[7] 19.755 
*END

*D_NET *411 0.213945
*CONN
*P wbs_dat_o[8] O
*I *419:x[8] O *D collatz
*CAP
1 wbs_dat_o[8] 0.000810134
2 *419:x[8] 0.0411129
3 *411:8 0.0215818
4 *411:7 0.0207716
5 *411:5 0.0411129
6 *411:8 *412:8 0.0885559
*RES
1 *419:x[8] *411:5 314.865 
2 *411:5 *411:7 4.5 
3 *411:7 *411:8 243.99 
4 *411:8 wbs_dat_o[8] 10.665 
*END

*D_NET *412 0.211781
*CONN
*P wbs_dat_o[9] O
*I *419:x[9] O *D collatz
*CAP
1 wbs_dat_o[9] 0.000849092
2 *419:x[9] 0.0410739
3 *412:8 0.0204913
4 *412:7 0.0196422
5 *412:5 0.0410739
6 wbs_dat_o[11] *412:8 2.92939e-05
7 *386:14 *412:8 6.55917e-05
8 *411:8 *412:8 0.0885559
*RES
1 *419:x[9] *412:5 314.685 
2 *412:5 *412:7 4.5 
3 *412:7 *412:8 236.97 
4 *412:8 wbs_dat_o[9] 10.845 
*END
